REMARK  Name = ../refined-set-2016/1zdp/1zdp_pocket.pdb
REMARK  146 active torsions:
REMARK  status: ('A' for Active; 'I' for Inactive)
REMARK    1  A    between atoms: _1  and  _3
REMARK    2  A    between atoms: _3  and  _4
REMARK    3  A    between atoms: _3  and  _6
REMARK    4  A    between atoms: _6  and  _7
REMARK    5  A    between atoms: _12  and  _13
REMARK    6  A    between atoms: _15  and  _17
REMARK    7  A    between atoms: _17  and  _18
REMARK    8  A    between atoms: _17  and  _20
REMARK    9  A    between atoms: _20  and  _21
REMARK   10  A    between atoms: _26  and  _28
REMARK   11  A    between atoms: _28  and  _29
REMARK   12  A    between atoms: _28  and  _31
REMARK   13  A    between atoms: _31  and  _32
REMARK   14  A    between atoms: _37  and  _39
REMARK   15  A    between atoms: _39  and  _40
REMARK   16  A    between atoms: _43  and  _45
REMARK   17  A    between atoms: _45  and  _46
REMARK   18  A    between atoms: _45  and  _48
REMARK   19  A    between atoms: _48  and  _49
REMARK   20  A    between atoms: _55  and  _57
REMARK   21  A    between atoms: _57  and  _58
REMARK   22  A    between atoms: _57  and  _60
REMARK   23  A    between atoms: _60  and  _61
REMARK   24  A    between atoms: _71  and  _73
REMARK   25  A    between atoms: _73  and  _74
REMARK   26  A    between atoms: _73  and  _76
REMARK   27  A    between atoms: _79  and  _81
REMARK   28  A    between atoms: _81  and  _82
REMARK   29  A    between atoms: _81  and  _84
REMARK   30  A    between atoms: _84  and  _85
REMARK   31  A    between atoms: _90  and  _91
REMARK   32  A    between atoms: _93  and  _95
REMARK   33  A    between atoms: _95  and  _96
REMARK   34  A    between atoms: _98  and  _100
REMARK   35  A    between atoms: _100  and  _101
REMARK   36  A    between atoms: _100  and  _103
REMARK   37  A    between atoms: _103  and  _104
REMARK   38  A    between atoms: _110  and  _112
REMARK   39  A    between atoms: _112  and  _113
REMARK   40  A    between atoms: _112  and  _115
REMARK   41  A    between atoms: _115  and  _116
REMARK   42  A    between atoms: _119  and  _121
REMARK   43  A    between atoms: _121  and  _122
REMARK   44  A    between atoms: _124  and  _126
REMARK   45  A    between atoms: _126  and  _127
REMARK   46  A    between atoms: _126  and  _129
REMARK   47  A    between atoms: _129  and  _130
REMARK   48  A    between atoms: _133  and  _135
REMARK   49  A    between atoms: _135  and  _136
REMARK   50  A    between atoms: _135  and  _138
REMARK   51  A    between atoms: _141  and  _143
REMARK   52  A    between atoms: _143  and  _144
REMARK   53  A    between atoms: _143  and  _146
REMARK   54  A    between atoms: _149  and  _151
REMARK   55  A    between atoms: _151  and  _152
REMARK   56  A    between atoms: _155  and  _157
REMARK   57  A    between atoms: _157  and  _158
REMARK   58  A    between atoms: _157  and  _160
REMARK   59  A    between atoms: _160  and  _161
REMARK   60  A    between atoms: _165  and  ZN_365
REMARK   61  A    between atoms: _166  and  _168
REMARK   62  A    between atoms: _168  and  _169
REMARK   63  A    between atoms: _168  and  _171
REMARK   64  A    between atoms: _171  and  _172
REMARK   65  A    between atoms: _172  and  _173
REMARK   66  A    between atoms: _176  and  _178
REMARK   67  A    between atoms: _178  and  _179
REMARK   68  A    between atoms: _178  and  _181
REMARK   69  A    between atoms: _181  and  _182
REMARK   70  A    between atoms: _186  and  ZN_365
REMARK   71  A    between atoms: _187  and  _189
REMARK   72  A    between atoms: _189  and  _190
REMARK   73  A    between atoms: _189  and  _192
REMARK   74  A    between atoms: _192  and  _193
REMARK   75  A    between atoms: _198  and  _199
REMARK   76  A    between atoms: _201  and  _203
REMARK   77  A    between atoms: _203  and  _204
REMARK   78  A    between atoms: _203  and  _206
REMARK   79  A    between atoms: _206  and  _207
REMARK   80  A    between atoms: _212  and  _214
REMARK   81  A    between atoms: _214  and  _215
REMARK   82  A    between atoms: _214  and  _217
REMARK   83  A    between atoms: _217  and  _218
REMARK   84  A    between atoms: _218  and  _219
REMARK   85  A    between atoms: _219  and  _220
REMARK   86  A    between atoms: _220  and  ZN_365
REMARK   87  A    between atoms: _222  and  _224
REMARK   88  A    between atoms: _224  and  _225
REMARK   89  A    between atoms: _224  and  _227
REMARK   90  A    between atoms: _227  and  _228
REMARK   91  A    between atoms: _230  and  _232
REMARK   92  A    between atoms: _232  and  _233
REMARK   93  A    between atoms: _232  and  _235
REMARK   94  A    between atoms: _235  and  _236
REMARK   95  A    between atoms: _239  and  _241
REMARK   96  A    between atoms: _241  and  _242
REMARK   97  A    between atoms: _241  and  _244
REMARK   98  A    between atoms: _244  and  _245
REMARK   99  A    between atoms: _248  and  _250
REMARK  100  A    between atoms: _250  and  _251
REMARK  101  A    between atoms: _253  and  _255
REMARK  102  A    between atoms: _255  and  _256
REMARK  103  A    between atoms: _255  and  _258
REMARK  104  A    between atoms: _258  and  _259
REMARK  105  A    between atoms: _259  and  _260
REMARK  106  A    between atoms: _263  and  _265
REMARK  107  A    between atoms: _265  and  _266
REMARK  108  A    between atoms: _265  and  _268
REMARK  109  A    between atoms: _268  and  _269
REMARK  110  A    between atoms: _272  and  _274
REMARK  111  A    between atoms: _274  and  _275
REMARK  112  A    between atoms: _274  and  _277
REMARK  113  A    between atoms: _280  and  _282
REMARK  114  A    between atoms: _282  and  _283
REMARK  115  A    between atoms: _282  and  _285
REMARK  116  A    between atoms: _285  and  _286
REMARK  117  A    between atoms: _291  and  _292
REMARK  118  A    between atoms: _294  and  _296
REMARK  119  A    between atoms: _296  and  _297
REMARK  120  A    between atoms: _296  and  _299
REMARK  121  A    between atoms: _299  and  _300
REMARK  122  A    between atoms: _303  and  _305
REMARK  123  A    between atoms: _305  and  _306
REMARK  124  A    between atoms: _305  and  _308
REMARK  125  A    between atoms: _308  and  _309
REMARK  126  A    between atoms: _309  and  _310
REMARK  127  A    between atoms: _310  and  _311
REMARK  128  A    between atoms: _320  and  _322
REMARK  129  A    between atoms: _322  and  _323
REMARK  130  A    between atoms: _322  and  _325
REMARK  131  A    between atoms: _325  and  _326
REMARK  132  A    between atoms: _329  and  _331
REMARK  133  A    between atoms: _331  and  _332
REMARK  134  A    between atoms: _331  and  _334
REMARK  135  A    between atoms: _337  and  _339
REMARK  136  A    between atoms: _339  and  _340
REMARK  137  A    between atoms: _339  and  _342
REMARK  138  A    between atoms: _342  and  _343
REMARK  139  A    between atoms: _348  and  _350
REMARK  140  A    between atoms: _350  and  _351
REMARK  141  A    between atoms: _350  and  _353
REMARK  142  A    between atoms: _353  and  _354
REMARK  143  A    between atoms: _357  and  _359
REMARK  144  A    between atoms: _359  and  _360
REMARK  145  A    between atoms: _359  and  _362
REMARK  146  A    between atoms: _362  and  _363
REMARK                            x       y       z     vdW  Elec       q    Type
REMARK                         _______ _______ _______ _____ _____    ______ ____
ROOT
ATOM      1  C   ASN A   3      32.186  38.816  -0.874  0.00  0.00    +0.241 C 
ATOM      2  O   ASN A   3      31.301  38.731   0.012  0.00  0.00    -0.273 OA
ATOM      3  N   ALA A   4      32.325  39.768  -1.769  0.00  0.00    -0.297 N 
ATOM      4  H   ALA A   4      33.141  39.690  -2.409  0.00  0.00    +0.150 HD
ENDROOT
BRANCH   3   5
ATOM      5  CA  ALA A   4      31.447  40.931  -1.959  0.00  0.00    +0.149 C 
ATOM      6  CB  ALA A   4      31.531  42.104  -0.997  0.00  0.00    +0.031 C 
BRANCH   5   7
ATOM      7  C   ALA A   4      31.679  41.329  -3.386  0.00  0.00    +0.241 C 
ATOM      8  O   ALA A   4      32.792  41.126  -3.887  0.00  0.00    -0.273 OA
ATOM      9  N   PHE A   5      30.615  41.837  -4.034  0.00  0.00    -0.297 N 
ATOM     10  H   PHE A   5      29.694  41.911  -3.557  0.00  0.00    +0.150 HD
BRANCH   9  11
ATOM     11  CA  PHE A   5      30.769  42.277  -5.399  0.00  0.00    +0.153 C 
BRANCH  11  12
ATOM     12  C   PHE A   5      29.659  43.262  -5.808  0.00  0.00    +0.241 C 
ATOM     13  O   PHE A   5      28.631  43.363  -5.169  0.00  0.00    -0.273 OA
ATOM     14  N   TRP A   6      29.852  43.930  -6.929  0.00  0.00    -0.298 N 
ATOM     15  H   TRP A   6      30.796  43.809  -7.349  0.00  0.00    +0.150 HD
BRANCH  14  16
ATOM     16  CA  TRP A   6      28.957  44.813  -7.679  0.00  0.00    +0.141 C 
BRANCH  16  17
ATOM     17  C   TRP A   6      28.548  43.954  -8.867  0.00  0.00    +0.227 C 
ATOM     18  O   TRP A   6      29.422  43.482  -9.549  0.00  0.00    -0.286 OA
ENDBRANCH  16  17
BRANCH  16  19
ATOM     19  CB  TRP A   6      29.664  46.079  -8.193  0.00  0.00    +0.056 C 
BRANCH  19  20
ATOM     20  CG  TRP A   6      28.860  46.777  -9.252  0.00  0.00    -0.002 A 
ATOM     21  CD2 TRP A   6      27.766  47.646  -9.027  0.00  0.00    +0.013 A 
ATOM     22  CE3 TRP A   6      27.063  48.004  -7.853  0.00  0.00    +0.001 A 
ATOM     23  CZ3 TRP A   6      26.028  48.921  -7.968  0.00  0.00    +0.000 A 
ATOM     24  CH2 TRP A   6      25.609  49.361  -9.246  0.00  0.00    +0.001 A 
ATOM     25  CZ2 TRP A   6      26.274  49.052 -10.398  0.00  0.00    +0.017 A 
ATOM     26  CE2 TRP A   6      27.381  48.157 -10.284  0.00  0.00    +0.056 A 
ATOM     27  NE1 TRP A   6      28.223  47.656 -11.220  0.00  0.00    -0.352 N 
ATOM     28  HE1 TRP A   6      28.183  47.840 -12.243  0.00  0.00    +0.166 HD
ATOM     29  CD1 TRP A   6      29.130  46.868 -10.580  0.00  0.00    +0.068 A 
ENDBRANCH  19  20
ENDBRANCH  16  19
ENDBRANCH  14  16
ENDBRANCH  11  12
BRANCH  11  30
ATOM     30  CB  PHE A   5      30.642  41.061  -6.336  0.00  0.00    +0.055 C 
BRANCH  30  31
ATOM     31  CG  PHE A   5      29.474  40.055  -6.166  0.00  0.00    -0.020 A 
ATOM     32  CD2 PHE A   5      29.418  39.122  -5.132  0.00  0.00    -0.004 A 
ATOM     33  CE2 PHE A   5      28.365  38.209  -5.008  0.00  0.00    -0.000 A 
ATOM     34  CZ  PHE A   5      27.309  38.248  -5.922  0.00  0.00    -0.000 A 
ATOM     35  CE1 PHE A   5      27.308  39.201  -6.948  0.00  0.00    -0.000 A 
ATOM     36  CD1 PHE A   5      28.393  40.074  -7.057  0.00  0.00    -0.004 A 
ENDBRANCH  30  31
ENDBRANCH  11  30
ENDBRANCH   9  11
ENDBRANCH   5   7
ENDBRANCH   3   5
BRANCH   1  37
ATOM     37  CA  ASN A   3      33.307  37.755  -0.959  0.00  0.00    +0.158 C 
BRANCH  37  40
ATOM     38  C   ASN A   2      34.062  35.963   0.444  0.00  0.00    +0.241 C 
ATOM     39  O   ASN A   2      35.202  36.058   0.017  0.00  0.00    -0.273 OA
ATOM     40  N   ASN A   3      33.090  36.732  -0.005  0.00  0.00    -0.297 N 
ATOM     41  H   ASN A   3      32.126  36.581   0.356  0.00  0.00    +0.150 HD
BRANCH  38  42
ATOM     42  CA  ASN A   2      33.763  34.928   1.513  0.00  0.00    +0.158 C 
BRANCH  42  45
ATOM     43  C   TYR A   1      31.381  34.460   1.725  0.00  0.00    +0.239 C 
ATOM     44  O   TYR A   1      31.154  35.431   2.474  0.00  0.00    -0.274 OA
ATOM     45  N   ASN A   2      32.585  34.151   1.247  0.00  0.00    -0.297 N 
ATOM     46  H   ASN A   2      32.677  33.304   0.651  0.00  0.00    +0.150 HD
BRANCH  43  47
ATOM     47  CA  TYR A   1      30.336  33.423   1.313  0.00  0.00    +0.149 C 
BRANCH  47  48
ATOM     48  N   TYR A   1      29.843  32.829   2.516  0.00  0.00    -0.238 NA
ATOM     49  H   TYR A   1      28.953  33.211   2.895  0.00  0.00    +0.142 HD
ENDBRANCH  47  48
BRANCH  47  50
ATOM     50  CB  TYR A   1      29.169  33.994   0.489  0.00  0.00    +0.053 C 
BRANCH  50  51
ATOM     51  CG  TYR A   1      29.614  34.330  -0.898  0.00  0.00    -0.020 A 
ATOM     52  CD2 TYR A   1      29.737  35.677  -1.255  0.00  0.00    -0.001 A 
ATOM     53  CE2 TYR A   1      30.177  36.135  -2.502  0.00  0.00    +0.036 A 
ATOM     54  CZ  TYR A   1      30.512  35.170  -3.455  0.00  0.00    +0.134 A 
ATOM     55  CE1 TYR A   1      30.339  33.813  -3.140  0.00  0.00    +0.036 A 
ATOM     56  CD1 TYR A   1      29.890  33.391  -1.883  0.00  0.00    -0.001 A 
BRANCH  54  57
ATOM     57  OH  TYR A   1      30.923  35.571  -4.696  0.00  0.00    -0.506 OA
ATOM     58  HH  TYR A   1      31.121  34.775  -5.250  0.00  0.00    +0.292 HD
ENDBRANCH  54  57
ENDBRANCH  50  51
ENDBRANCH  47  50
ENDBRANCH  43  47
ENDBRANCH  42  45
BRANCH  42  59
ATOM     59  CB  ASN A   2      35.048  34.059   1.800  0.00  0.00    +0.114 C 
BRANCH  59  60
ATOM     60  CG  ASN A   2      35.058  33.309   3.103  0.00  0.00    +0.222 C 
ATOM     61  OD1 ASN A   2      34.714  33.822   4.173  0.00  0.00    -0.275 OA
ATOM     62  ND2 ASN A   2      35.472  32.031   3.009  0.00  0.00    -0.329 N 
ATOM     63 HD21 ASN A   2      35.512  31.433   3.859  0.00  0.00    +0.145 HD
ATOM     64 HD22 ASN A   2      35.752  31.642   2.086  0.00  0.00    +0.145 HD
ENDBRANCH  59  60
ENDBRANCH  42  59
ENDBRANCH  38  42
ENDBRANCH  37  40
BRANCH  37  65
ATOM     65  CB  ASN A   3      33.489  37.216  -2.373  0.00  0.00    +0.114 C 
BRANCH  65  66
ATOM     66  CG  ASN A   3      34.592  37.864  -3.231  0.00  0.00    +0.222 C 
ATOM     67  OD1 ASN A   3      35.051  39.006  -3.104  0.00  0.00    -0.275 OA
ATOM     68  ND2 ASN A   3      35.134  37.030  -4.111  0.00  0.00    -0.329 N 
ATOM     69 HD21 ASN A   3      34.751  36.069  -4.221  0.00  0.00    +0.145 HD
ATOM     70 HD22 ASN A   3      35.941  37.338  -4.690  0.00  0.00    +0.145 HD
ENDBRANCH  65  66
ENDBRANCH  37  65
ENDBRANCH   1  37
TORSDOF 23
REMARK  Name = ../refined-set-2016/1zdp/1zdp_pocket.pdb
REMARK  146 active torsions:
REMARK  status: ('A' for Active; 'I' for Inactive)
REMARK    1  A    between atoms: _1  and  _3
REMARK    2  A    between atoms: _3  and  _4
REMARK    3  A    between atoms: _3  and  _6
REMARK    4  A    between atoms: _6  and  _7
REMARK    5  A    between atoms: _12  and  _13
REMARK    6  A    between atoms: _15  and  _17
REMARK    7  A    between atoms: _17  and  _18
REMARK    8  A    between atoms: _17  and  _20
REMARK    9  A    between atoms: _20  and  _21
REMARK   10  A    between atoms: _26  and  _28
REMARK   11  A    between atoms: _28  and  _29
REMARK   12  A    between atoms: _28  and  _31
REMARK   13  A    between atoms: _31  and  _32
REMARK   14  A    between atoms: _37  and  _39
REMARK   15  A    between atoms: _39  and  _40
REMARK   16  A    between atoms: _43  and  _45
REMARK   17  A    between atoms: _45  and  _46
REMARK   18  A    between atoms: _45  and  _48
REMARK   19  A    between atoms: _48  and  _49
REMARK   20  A    between atoms: _55  and  _57
REMARK   21  A    between atoms: _57  and  _58
REMARK   22  A    between atoms: _57  and  _60
REMARK   23  A    between atoms: _60  and  _61
REMARK   24  A    between atoms: _71  and  _73
REMARK   25  A    between atoms: _73  and  _74
REMARK   26  A    between atoms: _73  and  _76
REMARK   27  A    between atoms: _79  and  _81
REMARK   28  A    between atoms: _81  and  _82
REMARK   29  A    between atoms: _81  and  _84
REMARK   30  A    between atoms: _84  and  _85
REMARK   31  A    between atoms: _90  and  _91
REMARK   32  A    between atoms: _93  and  _95
REMARK   33  A    between atoms: _95  and  _96
REMARK   34  A    between atoms: _98  and  _100
REMARK   35  A    between atoms: _100  and  _101
REMARK   36  A    between atoms: _100  and  _103
REMARK   37  A    between atoms: _103  and  _104
REMARK   38  A    between atoms: _110  and  _112
REMARK   39  A    between atoms: _112  and  _113
REMARK   40  A    between atoms: _112  and  _115
REMARK   41  A    between atoms: _115  and  _116
REMARK   42  A    between atoms: _119  and  _121
REMARK   43  A    between atoms: _121  and  _122
REMARK   44  A    between atoms: _124  and  _126
REMARK   45  A    between atoms: _126  and  _127
REMARK   46  A    between atoms: _126  and  _129
REMARK   47  A    between atoms: _129  and  _130
REMARK   48  A    between atoms: _133  and  _135
REMARK   49  A    between atoms: _135  and  _136
REMARK   50  A    between atoms: _135  and  _138
REMARK   51  A    between atoms: _141  and  _143
REMARK   52  A    between atoms: _143  and  _144
REMARK   53  A    between atoms: _143  and  _146
REMARK   54  A    between atoms: _149  and  _151
REMARK   55  A    between atoms: _151  and  _152
REMARK   56  A    between atoms: _155  and  _157
REMARK   57  A    between atoms: _157  and  _158
REMARK   58  A    between atoms: _157  and  _160
REMARK   59  A    between atoms: _160  and  _161
REMARK   60  A    between atoms: _165  and  ZN_365
REMARK   61  A    between atoms: _166  and  _168
REMARK   62  A    between atoms: _168  and  _169
REMARK   63  A    between atoms: _168  and  _171
REMARK   64  A    between atoms: _171  and  _172
REMARK   65  A    between atoms: _172  and  _173
REMARK   66  A    between atoms: _176  and  _178
REMARK   67  A    between atoms: _178  and  _179
REMARK   68  A    between atoms: _178  and  _181
REMARK   69  A    between atoms: _181  and  _182
REMARK   70  A    between atoms: _186  and  ZN_365
REMARK   71  A    between atoms: _187  and  _189
REMARK   72  A    between atoms: _189  and  _190
REMARK   73  A    between atoms: _189  and  _192
REMARK   74  A    between atoms: _192  and  _193
REMARK   75  A    between atoms: _198  and  _199
REMARK   76  A    between atoms: _201  and  _203
REMARK   77  A    between atoms: _203  and  _204
REMARK   78  A    between atoms: _203  and  _206
REMARK   79  A    between atoms: _206  and  _207
REMARK   80  A    between atoms: _212  and  _214
REMARK   81  A    between atoms: _214  and  _215
REMARK   82  A    between atoms: _214  and  _217
REMARK   83  A    between atoms: _217  and  _218
REMARK   84  A    between atoms: _218  and  _219
REMARK   85  A    between atoms: _219  and  _220
REMARK   86  A    between atoms: _220  and  ZN_365
REMARK   87  A    between atoms: _222  and  _224
REMARK   88  A    between atoms: _224  and  _225
REMARK   89  A    between atoms: _224  and  _227
REMARK   90  A    between atoms: _227  and  _228
REMARK   91  A    between atoms: _230  and  _232
REMARK   92  A    between atoms: _232  and  _233
REMARK   93  A    between atoms: _232  and  _235
REMARK   94  A    between atoms: _235  and  _236
REMARK   95  A    between atoms: _239  and  _241
REMARK   96  A    between atoms: _241  and  _242
REMARK   97  A    between atoms: _241  and  _244
REMARK   98  A    between atoms: _244  and  _245
REMARK   99  A    between atoms: _248  and  _250
REMARK  100  A    between atoms: _250  and  _251
REMARK  101  A    between atoms: _253  and  _255
REMARK  102  A    between atoms: _255  and  _256
REMARK  103  A    between atoms: _255  and  _258
REMARK  104  A    between atoms: _258  and  _259
REMARK  105  A    between atoms: _259  and  _260
REMARK  106  A    between atoms: _263  and  _265
REMARK  107  A    between atoms: _265  and  _266
REMARK  108  A    between atoms: _265  and  _268
REMARK  109  A    between atoms: _268  and  _269
REMARK  110  A    between atoms: _272  and  _274
REMARK  111  A    between atoms: _274  and  _275
REMARK  112  A    between atoms: _274  and  _277
REMARK  113  A    between atoms: _280  and  _282
REMARK  114  A    between atoms: _282  and  _283
REMARK  115  A    between atoms: _282  and  _285
REMARK  116  A    between atoms: _285  and  _286
REMARK  117  A    between atoms: _291  and  _292
REMARK  118  A    between atoms: _294  and  _296
REMARK  119  A    between atoms: _296  and  _297
REMARK  120  A    between atoms: _296  and  _299
REMARK  121  A    between atoms: _299  and  _300
REMARK  122  A    between atoms: _303  and  _305
REMARK  123  A    between atoms: _305  and  _306
REMARK  124  A    between atoms: _305  and  _308
REMARK  125  A    between atoms: _308  and  _309
REMARK  126  A    between atoms: _309  and  _310
REMARK  127  A    between atoms: _310  and  _311
REMARK  128  A    between atoms: _320  and  _322
REMARK  129  A    between atoms: _322  and  _323
REMARK  130  A    between atoms: _322  and  _325
REMARK  131  A    between atoms: _325  and  _326
REMARK  132  A    between atoms: _329  and  _331
REMARK  133  A    between atoms: _331  and  _332
REMARK  134  A    between atoms: _331  and  _334
REMARK  135  A    between atoms: _337  and  _339
REMARK  136  A    between atoms: _339  and  _340
REMARK  137  A    between atoms: _339  and  _342
REMARK  138  A    between atoms: _342  and  _343
REMARK  139  A    between atoms: _348  and  _350
REMARK  140  A    between atoms: _350  and  _351
REMARK  141  A    between atoms: _350  and  _353
REMARK  142  A    between atoms: _353  and  _354
REMARK  143  A    between atoms: _357  and  _359
REMARK  144  A    between atoms: _359  and  _360
REMARK  145  A    between atoms: _359  and  _362
REMARK  146  A    between atoms: _362  and  _363
REMARK                            x       y       z     vdW  Elec       q    Type
REMARK                         _______ _______ _______ _____ _____    ______ ____
ROOT
ATOM      1  CA  TYR A   2      27.845  41.047   0.661  0.00  0.00    +0.153 C 
ENDROOT
BRANCH   1   3
ATOM      2  C   VAL A   1      27.242  41.706  -1.625  0.00  0.00    +0.238 C 
ATOM      3  N   TYR A   2      26.849  41.365  -0.387  0.00  0.00    -0.297 N 
ATOM      4  H   TYR A   2      25.834  41.324  -0.162  0.00  0.00    +0.150 HD
ATOM      5  O   VAL A   1      28.431  41.772  -2.012  0.00  0.00    -0.274 OA
BRANCH   2   6
ATOM      6  CA  VAL A   1      26.169  42.057  -2.651  0.00  0.00    +0.145 C 
BRANCH   6   7
ATOM      7  CB  VAL A   1      26.052  40.925  -3.704  0.00  0.00    +0.025 C 
ATOM      8  CG2 VAL A   1      25.611  39.620  -2.966  0.00  0.00    +0.002 C 
ATOM      9  CG1 VAL A   1      25.180  41.395  -4.902  0.00  0.00    +0.002 C 
ENDBRANCH   6   7
BRANCH   6  10
ATOM     10  N   VAL A   1      26.436  43.315  -3.329  0.00  0.00    -0.238 NA
ATOM     11  H   VAL A   1      27.405  43.428  -3.689  0.00  0.00    +0.142 HD
ENDBRANCH   6  10
ENDBRANCH   2   6
ENDBRANCH   1   3
BRANCH   1  12
ATOM     12  C   TYR A   2      27.585  39.681   1.302  0.00  0.00    +0.241 C 
ATOM     13  O   TYR A   2      26.463  39.451   1.789  0.00  0.00    -0.273 OA
ATOM     14  N   GLY A   3      28.646  38.821   1.319  0.00  0.00    -0.301 N 
ATOM     15  H   GLY A   3      29.556  39.098   0.898  0.00  0.00    +0.150 HD
BRANCH  14  16
ATOM     16  CA  GLY A   3      28.491  37.539   1.921  0.00  0.00    +0.125 C 
BRANCH  16  17
ATOM     17  C   GLY A   3      28.730  37.785   3.412  0.00  0.00    +0.203 C 
ATOM     18  O   GLY A   3      29.147  38.936   3.694  0.00  0.00    -0.219 OA
ENDBRANCH  16  17
ENDBRANCH  14  16
ENDBRANCH   1  12
BRANCH   1  19
ATOM     19  CB  TYR A   2      27.853  42.033   1.881  0.00  0.00    +0.055 C 
BRANCH  19  20
ATOM     20  CG  TYR A   2      28.009  43.492   1.414  0.00  0.00    -0.020 A 
ATOM     21  CD2 TYR A   2      29.305  43.986   1.274  0.00  0.00    -0.001 A 
ATOM     22  CE2 TYR A   2      29.702  45.237   0.785  0.00  0.00    +0.036 A 
ATOM     23  CZ  TYR A   2      28.638  46.054   0.400  0.00  0.00    +0.134 A 
ATOM     24  CE1 TYR A   2      27.329  45.558   0.505  0.00  0.00    +0.036 A 
ATOM     25  CD1 TYR A   2      26.937  44.317   1.016  0.00  0.00    -0.001 A 
BRANCH  23  26
ATOM     26  OH  TYR A   2      28.903  47.318  -0.067  0.00  0.00    -0.506 OA
ATOM     27  HH  TYR A   2      28.052  47.769  -0.297  0.00  0.00    +0.292 HD
ENDBRANCH  23  26
ENDBRANCH  19  20
ENDBRANCH   1  19
TORSDOF 10
REMARK  Name = ../refined-set-2016/1zdp/1zdp_pocket.pdb
REMARK  146 active torsions:
REMARK  status: ('A' for Active; 'I' for Inactive)
REMARK    1  A    between atoms: _1  and  _3
REMARK    2  A    between atoms: _3  and  _4
REMARK    3  A    between atoms: _3  and  _6
REMARK    4  A    between atoms: _6  and  _7
REMARK    5  A    between atoms: _12  and  _13
REMARK    6  A    between atoms: _15  and  _17
REMARK    7  A    between atoms: _17  and  _18
REMARK    8  A    between atoms: _17  and  _20
REMARK    9  A    between atoms: _20  and  _21
REMARK   10  A    between atoms: _26  and  _28
REMARK   11  A    between atoms: _28  and  _29
REMARK   12  A    between atoms: _28  and  _31
REMARK   13  A    between atoms: _31  and  _32
REMARK   14  A    between atoms: _37  and  _39
REMARK   15  A    between atoms: _39  and  _40
REMARK   16  A    between atoms: _43  and  _45
REMARK   17  A    between atoms: _45  and  _46
REMARK   18  A    between atoms: _45  and  _48
REMARK   19  A    between atoms: _48  and  _49
REMARK   20  A    between atoms: _55  and  _57
REMARK   21  A    between atoms: _57  and  _58
REMARK   22  A    between atoms: _57  and  _60
REMARK   23  A    between atoms: _60  and  _61
REMARK   24  A    between atoms: _71  and  _73
REMARK   25  A    between atoms: _73  and  _74
REMARK   26  A    between atoms: _73  and  _76
REMARK   27  A    between atoms: _79  and  _81
REMARK   28  A    between atoms: _81  and  _82
REMARK   29  A    between atoms: _81  and  _84
REMARK   30  A    between atoms: _84  and  _85
REMARK   31  A    between atoms: _90  and  _91
REMARK   32  A    between atoms: _93  and  _95
REMARK   33  A    between atoms: _95  and  _96
REMARK   34  A    between atoms: _98  and  _100
REMARK   35  A    between atoms: _100  and  _101
REMARK   36  A    between atoms: _100  and  _103
REMARK   37  A    between atoms: _103  and  _104
REMARK   38  A    between atoms: _110  and  _112
REMARK   39  A    between atoms: _112  and  _113
REMARK   40  A    between atoms: _112  and  _115
REMARK   41  A    between atoms: _115  and  _116
REMARK   42  A    between atoms: _119  and  _121
REMARK   43  A    between atoms: _121  and  _122
REMARK   44  A    between atoms: _124  and  _126
REMARK   45  A    between atoms: _126  and  _127
REMARK   46  A    between atoms: _126  and  _129
REMARK   47  A    between atoms: _129  and  _130
REMARK   48  A    between atoms: _133  and  _135
REMARK   49  A    between atoms: _135  and  _136
REMARK   50  A    between atoms: _135  and  _138
REMARK   51  A    between atoms: _141  and  _143
REMARK   52  A    between atoms: _143  and  _144
REMARK   53  A    between atoms: _143  and  _146
REMARK   54  A    between atoms: _149  and  _151
REMARK   55  A    between atoms: _151  and  _152
REMARK   56  A    between atoms: _155  and  _157
REMARK   57  A    between atoms: _157  and  _158
REMARK   58  A    between atoms: _157  and  _160
REMARK   59  A    between atoms: _160  and  _161
REMARK   60  A    between atoms: _165  and  ZN_365
REMARK   61  A    between atoms: _166  and  _168
REMARK   62  A    between atoms: _168  and  _169
REMARK   63  A    between atoms: _168  and  _171
REMARK   64  A    between atoms: _171  and  _172
REMARK   65  A    between atoms: _172  and  _173
REMARK   66  A    between atoms: _176  and  _178
REMARK   67  A    between atoms: _178  and  _179
REMARK   68  A    between atoms: _178  and  _181
REMARK   69  A    between atoms: _181  and  _182
REMARK   70  A    between atoms: _186  and  ZN_365
REMARK   71  A    between atoms: _187  and  _189
REMARK   72  A    between atoms: _189  and  _190
REMARK   73  A    between atoms: _189  and  _192
REMARK   74  A    between atoms: _192  and  _193
REMARK   75  A    between atoms: _198  and  _199
REMARK   76  A    between atoms: _201  and  _203
REMARK   77  A    between atoms: _203  and  _204
REMARK   78  A    between atoms: _203  and  _206
REMARK   79  A    between atoms: _206  and  _207
REMARK   80  A    between atoms: _212  and  _214
REMARK   81  A    between atoms: _214  and  _215
REMARK   82  A    between atoms: _214  and  _217
REMARK   83  A    between atoms: _217  and  _218
REMARK   84  A    between atoms: _218  and  _219
REMARK   85  A    between atoms: _219  and  _220
REMARK   86  A    between atoms: _220  and  ZN_365
REMARK   87  A    between atoms: _222  and  _224
REMARK   88  A    between atoms: _224  and  _225
REMARK   89  A    between atoms: _224  and  _227
REMARK   90  A    between atoms: _227  and  _228
REMARK   91  A    between atoms: _230  and  _232
REMARK   92  A    between atoms: _232  and  _233
REMARK   93  A    between atoms: _232  and  _235
REMARK   94  A    between atoms: _235  and  _236
REMARK   95  A    between atoms: _239  and  _241
REMARK   96  A    between atoms: _241  and  _242
REMARK   97  A    between atoms: _241  and  _244
REMARK   98  A    between atoms: _244  and  _245
REMARK   99  A    between atoms: _248  and  _250
REMARK  100  A    between atoms: _250  and  _251
REMARK  101  A    between atoms: _253  and  _255
REMARK  102  A    between atoms: _255  and  _256
REMARK  103  A    between atoms: _255  and  _258
REMARK  104  A    between atoms: _258  and  _259
REMARK  105  A    between atoms: _259  and  _260
REMARK  106  A    between atoms: _263  and  _265
REMARK  107  A    between atoms: _265  and  _266
REMARK  108  A    between atoms: _265  and  _268
REMARK  109  A    between atoms: _268  and  _269
REMARK  110  A    between atoms: _272  and  _274
REMARK  111  A    between atoms: _274  and  _275
REMARK  112  A    between atoms: _274  and  _277
REMARK  113  A    between atoms: _280  and  _282
REMARK  114  A    between atoms: _282  and  _283
REMARK  115  A    between atoms: _282  and  _285
REMARK  116  A    between atoms: _285  and  _286
REMARK  117  A    between atoms: _291  and  _292
REMARK  118  A    between atoms: _294  and  _296
REMARK  119  A    between atoms: _296  and  _297
REMARK  120  A    between atoms: _296  and  _299
REMARK  121  A    between atoms: _299  and  _300
REMARK  122  A    between atoms: _303  and  _305
REMARK  123  A    between atoms: _305  and  _306
REMARK  124  A    between atoms: _305  and  _308
REMARK  125  A    between atoms: _308  and  _309
REMARK  126  A    between atoms: _309  and  _310
REMARK  127  A    between atoms: _310  and  _311
REMARK  128  A    between atoms: _320  and  _322
REMARK  129  A    between atoms: _322  and  _323
REMARK  130  A    between atoms: _322  and  _325
REMARK  131  A    between atoms: _325  and  _326
REMARK  132  A    between atoms: _329  and  _331
REMARK  133  A    between atoms: _331  and  _332
REMARK  134  A    between atoms: _331  and  _334
REMARK  135  A    between atoms: _337  and  _339
REMARK  136  A    between atoms: _339  and  _340
REMARK  137  A    between atoms: _339  and  _342
REMARK  138  A    between atoms: _342  and  _343
REMARK  139  A    between atoms: _348  and  _350
REMARK  140  A    between atoms: _350  and  _351
REMARK  141  A    between atoms: _350  and  _353
REMARK  142  A    between atoms: _353  and  _354
REMARK  143  A    between atoms: _357  and  _359
REMARK  144  A    between atoms: _359  and  _360
REMARK  145  A    between atoms: _359  and  _362
REMARK  146  A    between atoms: _362  and  _363
REMARK                            x       y       z     vdW  Elec       q    Type
REMARK                         _______ _______ _______ _____ _____    ______ ____
ROOT
ATOM      1  CB  PHE A   1      35.663  36.943   5.577  0.00  0.00    +0.051 C 
ENDROOT
BRANCH   1   2
ATOM      2  CG  PHE A   1      36.519  37.565   4.486  0.00  0.00    -0.020 A 
ATOM      3  CD2 PHE A   1      36.923  38.906   4.533  0.00  0.00    -0.004 A 
ATOM      4  CE2 PHE A   1      37.715  39.463   3.534  0.00  0.00    -0.000 A 
ATOM      5  CZ  PHE A   1      38.079  38.653   2.461  0.00  0.00    -0.000 A 
ATOM      6  CE1 PHE A   1      37.654  37.332   2.351  0.00  0.00    -0.000 A 
ATOM      7  CD1 PHE A   1      36.876  36.795   3.377  0.00  0.00    -0.004 A 
ENDBRANCH   1   2
BRANCH   1   8
ATOM      8  CA  PHE A   1      36.267  36.696   7.000  0.00  0.00    +0.137 C 
BRANCH   8   9
ATOM      9  N   PHE A   1      36.912  35.379   6.984  0.00  0.00    -0.239 NA
ATOM     10  H   PHE A   1      36.328  34.522   7.058  0.00  0.00    +0.142 HD
ENDBRANCH   8   9
BRANCH   8  11
ATOM     11  C   PHE A   1      35.064  36.720   7.907  0.00  0.00    +0.224 C 
ATOM     12  O   PHE A   1      34.502  35.689   8.154  0.00  0.00    -0.287 OA
ENDBRANCH   8  11
ENDBRANCH   1   8
TORSDOF 4
REMARK  Name = ../refined-set-2016/1zdp/1zdp_pocket.pdb
REMARK  146 active torsions:
REMARK  status: ('A' for Active; 'I' for Inactive)
REMARK    1  A    between atoms: _1  and  _3
REMARK    2  A    between atoms: _3  and  _4
REMARK    3  A    between atoms: _3  and  _6
REMARK    4  A    between atoms: _6  and  _7
REMARK    5  A    between atoms: _12  and  _13
REMARK    6  A    between atoms: _15  and  _17
REMARK    7  A    between atoms: _17  and  _18
REMARK    8  A    between atoms: _17  and  _20
REMARK    9  A    between atoms: _20  and  _21
REMARK   10  A    between atoms: _26  and  _28
REMARK   11  A    between atoms: _28  and  _29
REMARK   12  A    between atoms: _28  and  _31
REMARK   13  A    between atoms: _31  and  _32
REMARK   14  A    between atoms: _37  and  _39
REMARK   15  A    between atoms: _39  and  _40
REMARK   16  A    between atoms: _43  and  _45
REMARK   17  A    between atoms: _45  and  _46
REMARK   18  A    between atoms: _45  and  _48
REMARK   19  A    between atoms: _48  and  _49
REMARK   20  A    between atoms: _55  and  _57
REMARK   21  A    between atoms: _57  and  _58
REMARK   22  A    between atoms: _57  and  _60
REMARK   23  A    between atoms: _60  and  _61
REMARK   24  A    between atoms: _71  and  _73
REMARK   25  A    between atoms: _73  and  _74
REMARK   26  A    between atoms: _73  and  _76
REMARK   27  A    between atoms: _79  and  _81
REMARK   28  A    between atoms: _81  and  _82
REMARK   29  A    between atoms: _81  and  _84
REMARK   30  A    between atoms: _84  and  _85
REMARK   31  A    between atoms: _90  and  _91
REMARK   32  A    between atoms: _93  and  _95
REMARK   33  A    between atoms: _95  and  _96
REMARK   34  A    between atoms: _98  and  _100
REMARK   35  A    between atoms: _100  and  _101
REMARK   36  A    between atoms: _100  and  _103
REMARK   37  A    between atoms: _103  and  _104
REMARK   38  A    between atoms: _110  and  _112
REMARK   39  A    between atoms: _112  and  _113
REMARK   40  A    between atoms: _112  and  _115
REMARK   41  A    between atoms: _115  and  _116
REMARK   42  A    between atoms: _119  and  _121
REMARK   43  A    between atoms: _121  and  _122
REMARK   44  A    between atoms: _124  and  _126
REMARK   45  A    between atoms: _126  and  _127
REMARK   46  A    between atoms: _126  and  _129
REMARK   47  A    between atoms: _129  and  _130
REMARK   48  A    between atoms: _133  and  _135
REMARK   49  A    between atoms: _135  and  _136
REMARK   50  A    between atoms: _135  and  _138
REMARK   51  A    between atoms: _141  and  _143
REMARK   52  A    between atoms: _143  and  _144
REMARK   53  A    between atoms: _143  and  _146
REMARK   54  A    between atoms: _149  and  _151
REMARK   55  A    between atoms: _151  and  _152
REMARK   56  A    between atoms: _155  and  _157
REMARK   57  A    between atoms: _157  and  _158
REMARK   58  A    between atoms: _157  and  _160
REMARK   59  A    between atoms: _160  and  _161
REMARK   60  A    between atoms: _165  and  ZN_365
REMARK   61  A    between atoms: _166  and  _168
REMARK   62  A    between atoms: _168  and  _169
REMARK   63  A    between atoms: _168  and  _171
REMARK   64  A    between atoms: _171  and  _172
REMARK   65  A    between atoms: _172  and  _173
REMARK   66  A    between atoms: _176  and  _178
REMARK   67  A    between atoms: _178  and  _179
REMARK   68  A    between atoms: _178  and  _181
REMARK   69  A    between atoms: _181  and  _182
REMARK   70  A    between atoms: _186  and  ZN_365
REMARK   71  A    between atoms: _187  and  _189
REMARK   72  A    between atoms: _189  and  _190
REMARK   73  A    between atoms: _189  and  _192
REMARK   74  A    between atoms: _192  and  _193
REMARK   75  A    between atoms: _198  and  _199
REMARK   76  A    between atoms: _201  and  _203
REMARK   77  A    between atoms: _203  and  _204
REMARK   78  A    between atoms: _203  and  _206
REMARK   79  A    between atoms: _206  and  _207
REMARK   80  A    between atoms: _212  and  _214
REMARK   81  A    between atoms: _214  and  _215
REMARK   82  A    between atoms: _214  and  _217
REMARK   83  A    between atoms: _217  and  _218
REMARK   84  A    between atoms: _218  and  _219
REMARK   85  A    between atoms: _219  and  _220
REMARK   86  A    between atoms: _220  and  ZN_365
REMARK   87  A    between atoms: _222  and  _224
REMARK   88  A    between atoms: _224  and  _225
REMARK   89  A    between atoms: _224  and  _227
REMARK   90  A    between atoms: _227  and  _228
REMARK   91  A    between atoms: _230  and  _232
REMARK   92  A    between atoms: _232  and  _233
REMARK   93  A    between atoms: _232  and  _235
REMARK   94  A    between atoms: _235  and  _236
REMARK   95  A    between atoms: _239  and  _241
REMARK   96  A    between atoms: _241  and  _242
REMARK   97  A    between atoms: _241  and  _244
REMARK   98  A    between atoms: _244  and  _245
REMARK   99  A    between atoms: _248  and  _250
REMARK  100  A    between atoms: _250  and  _251
REMARK  101  A    between atoms: _253  and  _255
REMARK  102  A    between atoms: _255  and  _256
REMARK  103  A    between atoms: _255  and  _258
REMARK  104  A    between atoms: _258  and  _259
REMARK  105  A    between atoms: _259  and  _260
REMARK  106  A    between atoms: _263  and  _265
REMARK  107  A    between atoms: _265  and  _266
REMARK  108  A    between atoms: _265  and  _268
REMARK  109  A    between atoms: _268  and  _269
REMARK  110  A    between atoms: _272  and  _274
REMARK  111  A    between atoms: _274  and  _275
REMARK  112  A    between atoms: _274  and  _277
REMARK  113  A    between atoms: _280  and  _282
REMARK  114  A    between atoms: _282  and  _283
REMARK  115  A    between atoms: _282  and  _285
REMARK  116  A    between atoms: _285  and  _286
REMARK  117  A    between atoms: _291  and  _292
REMARK  118  A    between atoms: _294  and  _296
REMARK  119  A    between atoms: _296  and  _297
REMARK  120  A    between atoms: _296  and  _299
REMARK  121  A    between atoms: _299  and  _300
REMARK  122  A    between atoms: _303  and  _305
REMARK  123  A    between atoms: _305  and  _306
REMARK  124  A    between atoms: _305  and  _308
REMARK  125  A    between atoms: _308  and  _309
REMARK  126  A    between atoms: _309  and  _310
REMARK  127  A    between atoms: _310  and  _311
REMARK  128  A    between atoms: _320  and  _322
REMARK  129  A    between atoms: _322  and  _323
REMARK  130  A    between atoms: _322  and  _325
REMARK  131  A    between atoms: _325  and  _326
REMARK  132  A    between atoms: _329  and  _331
REMARK  133  A    between atoms: _331  and  _332
REMARK  134  A    between atoms: _331  and  _334
REMARK  135  A    between atoms: _337  and  _339
REMARK  136  A    between atoms: _339  and  _340
REMARK  137  A    between atoms: _339  and  _342
REMARK  138  A    between atoms: _342  and  _343
REMARK  139  A    between atoms: _348  and  _350
REMARK  140  A    between atoms: _350  and  _351
REMARK  141  A    between atoms: _350  and  _353
REMARK  142  A    between atoms: _353  and  _354
REMARK  143  A    between atoms: _357  and  _359
REMARK  144  A    between atoms: _359  and  _360
REMARK  145  A    between atoms: _359  and  _362
REMARK  146  A    between atoms: _362  and  _363
REMARK                            x       y       z     vdW  Elec       q    Type
REMARK                         _______ _______ _______ _____ _____    ______ ____
ROOT
ATOM      1  CA  LEU A   1      32.067  41.927   4.451  0.00  0.00    +0.133 C 
ENDROOT
BRANCH   1   2
ATOM      2  N   LEU A   1      31.321  40.970   5.256  0.00  0.00    -0.239 NA
ATOM      3  H   LEU A   1      30.838  40.178   4.786  0.00  0.00    +0.142 HD
ENDBRANCH   1   2
BRANCH   1   4
ATOM      4  C   LEU A   1      31.760  43.427   4.515  0.00  0.00    +0.224 C 
ATOM      5  O   LEU A   1      32.609  44.309   4.316  0.00  0.00    -0.287 OA
ENDBRANCH   1   4
BRANCH   1   6
ATOM      6  CB  LEU A   1      32.431  41.392   3.053  0.00  0.00    +0.025 C 
BRANCH   6   7
ATOM      7  CG  LEU A   1      33.458  40.236   3.160  0.00  0.00    +0.002 C 
ATOM      8  CD2 LEU A   1      32.775  38.897   3.468  0.00  0.00    +0.000 C 
ATOM      9  CD1 LEU A   1      34.178  40.324   1.833  0.00  0.00    +0.000 C 
ENDBRANCH   6   7
ENDBRANCH   1   6
TORSDOF 4
REMARK  Name = ../refined-set-2016/1zdp/1zdp_pocket.pdb
REMARK  146 active torsions:
REMARK  status: ('A' for Active; 'I' for Inactive)
REMARK    1  A    between atoms: _1  and  _3
REMARK    2  A    between atoms: _3  and  _4
REMARK    3  A    between atoms: _3  and  _6
REMARK    4  A    between atoms: _6  and  _7
REMARK    5  A    between atoms: _12  and  _13
REMARK    6  A    between atoms: _15  and  _17
REMARK    7  A    between atoms: _17  and  _18
REMARK    8  A    between atoms: _17  and  _20
REMARK    9  A    between atoms: _20  and  _21
REMARK   10  A    between atoms: _26  and  _28
REMARK   11  A    between atoms: _28  and  _29
REMARK   12  A    between atoms: _28  and  _31
REMARK   13  A    between atoms: _31  and  _32
REMARK   14  A    between atoms: _37  and  _39
REMARK   15  A    between atoms: _39  and  _40
REMARK   16  A    between atoms: _43  and  _45
REMARK   17  A    between atoms: _45  and  _46
REMARK   18  A    between atoms: _45  and  _48
REMARK   19  A    between atoms: _48  and  _49
REMARK   20  A    between atoms: _55  and  _57
REMARK   21  A    between atoms: _57  and  _58
REMARK   22  A    between atoms: _57  and  _60
REMARK   23  A    between atoms: _60  and  _61
REMARK   24  A    between atoms: _71  and  _73
REMARK   25  A    between atoms: _73  and  _74
REMARK   26  A    between atoms: _73  and  _76
REMARK   27  A    between atoms: _79  and  _81
REMARK   28  A    between atoms: _81  and  _82
REMARK   29  A    between atoms: _81  and  _84
REMARK   30  A    between atoms: _84  and  _85
REMARK   31  A    between atoms: _90  and  _91
REMARK   32  A    between atoms: _93  and  _95
REMARK   33  A    between atoms: _95  and  _96
REMARK   34  A    between atoms: _98  and  _100
REMARK   35  A    between atoms: _100  and  _101
REMARK   36  A    between atoms: _100  and  _103
REMARK   37  A    between atoms: _103  and  _104
REMARK   38  A    between atoms: _110  and  _112
REMARK   39  A    between atoms: _112  and  _113
REMARK   40  A    between atoms: _112  and  _115
REMARK   41  A    between atoms: _115  and  _116
REMARK   42  A    between atoms: _119  and  _121
REMARK   43  A    between atoms: _121  and  _122
REMARK   44  A    between atoms: _124  and  _126
REMARK   45  A    between atoms: _126  and  _127
REMARK   46  A    between atoms: _126  and  _129
REMARK   47  A    between atoms: _129  and  _130
REMARK   48  A    between atoms: _133  and  _135
REMARK   49  A    between atoms: _135  and  _136
REMARK   50  A    between atoms: _135  and  _138
REMARK   51  A    between atoms: _141  and  _143
REMARK   52  A    between atoms: _143  and  _144
REMARK   53  A    between atoms: _143  and  _146
REMARK   54  A    between atoms: _149  and  _151
REMARK   55  A    between atoms: _151  and  _152
REMARK   56  A    between atoms: _155  and  _157
REMARK   57  A    between atoms: _157  and  _158
REMARK   58  A    between atoms: _157  and  _160
REMARK   59  A    between atoms: _160  and  _161
REMARK   60  A    between atoms: _165  and  ZN_365
REMARK   61  A    between atoms: _166  and  _168
REMARK   62  A    between atoms: _168  and  _169
REMARK   63  A    between atoms: _168  and  _171
REMARK   64  A    between atoms: _171  and  _172
REMARK   65  A    between atoms: _172  and  _173
REMARK   66  A    between atoms: _176  and  _178
REMARK   67  A    between atoms: _178  and  _179
REMARK   68  A    between atoms: _178  and  _181
REMARK   69  A    between atoms: _181  and  _182
REMARK   70  A    between atoms: _186  and  ZN_365
REMARK   71  A    between atoms: _187  and  _189
REMARK   72  A    between atoms: _189  and  _190
REMARK   73  A    between atoms: _189  and  _192
REMARK   74  A    between atoms: _192  and  _193
REMARK   75  A    between atoms: _198  and  _199
REMARK   76  A    between atoms: _201  and  _203
REMARK   77  A    between atoms: _203  and  _204
REMARK   78  A    between atoms: _203  and  _206
REMARK   79  A    between atoms: _206  and  _207
REMARK   80  A    between atoms: _212  and  _214
REMARK   81  A    between atoms: _214  and  _215
REMARK   82  A    between atoms: _214  and  _217
REMARK   83  A    between atoms: _217  and  _218
REMARK   84  A    between atoms: _218  and  _219
REMARK   85  A    between atoms: _219  and  _220
REMARK   86  A    between atoms: _220  and  ZN_365
REMARK   87  A    between atoms: _222  and  _224
REMARK   88  A    between atoms: _224  and  _225
REMARK   89  A    between atoms: _224  and  _227
REMARK   90  A    between atoms: _227  and  _228
REMARK   91  A    between atoms: _230  and  _232
REMARK   92  A    between atoms: _232  and  _233
REMARK   93  A    between atoms: _232  and  _235
REMARK   94  A    between atoms: _235  and  _236
REMARK   95  A    between atoms: _239  and  _241
REMARK   96  A    between atoms: _241  and  _242
REMARK   97  A    between atoms: _241  and  _244
REMARK   98  A    between atoms: _244  and  _245
REMARK   99  A    between atoms: _248  and  _250
REMARK  100  A    between atoms: _250  and  _251
REMARK  101  A    between atoms: _253  and  _255
REMARK  102  A    between atoms: _255  and  _256
REMARK  103  A    between atoms: _255  and  _258
REMARK  104  A    between atoms: _258  and  _259
REMARK  105  A    between atoms: _259  and  _260
REMARK  106  A    between atoms: _263  and  _265
REMARK  107  A    between atoms: _265  and  _266
REMARK  108  A    between atoms: _265  and  _268
REMARK  109  A    between atoms: _268  and  _269
REMARK  110  A    between atoms: _272  and  _274
REMARK  111  A    between atoms: _274  and  _275
REMARK  112  A    between atoms: _274  and  _277
REMARK  113  A    between atoms: _280  and  _282
REMARK  114  A    between atoms: _282  and  _283
REMARK  115  A    between atoms: _282  and  _285
REMARK  116  A    between atoms: _285  and  _286
REMARK  117  A    between atoms: _291  and  _292
REMARK  118  A    between atoms: _294  and  _296
REMARK  119  A    between atoms: _296  and  _297
REMARK  120  A    between atoms: _296  and  _299
REMARK  121  A    between atoms: _299  and  _300
REMARK  122  A    between atoms: _303  and  _305
REMARK  123  A    between atoms: _305  and  _306
REMARK  124  A    between atoms: _305  and  _308
REMARK  125  A    between atoms: _308  and  _309
REMARK  126  A    between atoms: _309  and  _310
REMARK  127  A    between atoms: _310  and  _311
REMARK  128  A    between atoms: _320  and  _322
REMARK  129  A    between atoms: _322  and  _323
REMARK  130  A    between atoms: _322  and  _325
REMARK  131  A    between atoms: _325  and  _326
REMARK  132  A    between atoms: _329  and  _331
REMARK  133  A    between atoms: _331  and  _332
REMARK  134  A    between atoms: _331  and  _334
REMARK  135  A    between atoms: _337  and  _339
REMARK  136  A    between atoms: _339  and  _340
REMARK  137  A    between atoms: _339  and  _342
REMARK  138  A    between atoms: _342  and  _343
REMARK  139  A    between atoms: _348  and  _350
REMARK  140  A    between atoms: _350  and  _351
REMARK  141  A    between atoms: _350  and  _353
REMARK  142  A    between atoms: _353  and  _354
REMARK  143  A    between atoms: _357  and  _359
REMARK  144  A    between atoms: _359  and  _360
REMARK  145  A    between atoms: _359  and  _362
REMARK  146  A    between atoms: _362  and  _363
REMARK                            x       y       z     vdW  Elec       q    Type
REMARK                         _______ _______ _______ _____ _____    ______ ____
ROOT
ATOM      1  CA  GLY A   1      34.832  47.319   6.302  0.00  0.00    +0.156 C 
ENDROOT
BRANCH   1   2
ATOM      2  N   GLY A   1      33.620  46.607   6.713  0.00  0.00    -0.238 NA
ATOM      3  H   GLY A   1      33.115  46.055   5.990  0.00  0.00    +0.142 HD
ENDBRANCH   1   2
BRANCH   1   4
ATOM      4  C   GLY A   1      34.492  48.408   5.334  0.00  0.00    +0.226 C 
ATOM      5  O   GLY A   1      34.022  48.159   4.213  0.00  0.00    -0.287 OA
ENDBRANCH   1   4
TORSDOF 2
REMARK  Name = ../refined-set-2016/1zdp/1zdp_pocket.pdb
REMARK  146 active torsions:
REMARK  status: ('A' for Active; 'I' for Inactive)
REMARK    1  A    between atoms: _1  and  _3
REMARK    2  A    between atoms: _3  and  _4
REMARK    3  A    between atoms: _3  and  _6
REMARK    4  A    between atoms: _6  and  _7
REMARK    5  A    between atoms: _12  and  _13
REMARK    6  A    between atoms: _15  and  _17
REMARK    7  A    between atoms: _17  and  _18
REMARK    8  A    between atoms: _17  and  _20
REMARK    9  A    between atoms: _20  and  _21
REMARK   10  A    between atoms: _26  and  _28
REMARK   11  A    between atoms: _28  and  _29
REMARK   12  A    between atoms: _28  and  _31
REMARK   13  A    between atoms: _31  and  _32
REMARK   14  A    between atoms: _37  and  _39
REMARK   15  A    between atoms: _39  and  _40
REMARK   16  A    between atoms: _43  and  _45
REMARK   17  A    between atoms: _45  and  _46
REMARK   18  A    between atoms: _45  and  _48
REMARK   19  A    between atoms: _48  and  _49
REMARK   20  A    between atoms: _55  and  _57
REMARK   21  A    between atoms: _57  and  _58
REMARK   22  A    between atoms: _57  and  _60
REMARK   23  A    between atoms: _60  and  _61
REMARK   24  A    between atoms: _71  and  _73
REMARK   25  A    between atoms: _73  and  _74
REMARK   26  A    between atoms: _73  and  _76
REMARK   27  A    between atoms: _79  and  _81
REMARK   28  A    between atoms: _81  and  _82
REMARK   29  A    between atoms: _81  and  _84
REMARK   30  A    between atoms: _84  and  _85
REMARK   31  A    between atoms: _90  and  _91
REMARK   32  A    between atoms: _93  and  _95
REMARK   33  A    between atoms: _95  and  _96
REMARK   34  A    between atoms: _98  and  _100
REMARK   35  A    between atoms: _100  and  _101
REMARK   36  A    between atoms: _100  and  _103
REMARK   37  A    between atoms: _103  and  _104
REMARK   38  A    between atoms: _110  and  _112
REMARK   39  A    between atoms: _112  and  _113
REMARK   40  A    between atoms: _112  and  _115
REMARK   41  A    between atoms: _115  and  _116
REMARK   42  A    between atoms: _119  and  _121
REMARK   43  A    between atoms: _121  and  _122
REMARK   44  A    between atoms: _124  and  _126
REMARK   45  A    between atoms: _126  and  _127
REMARK   46  A    between atoms: _126  and  _129
REMARK   47  A    between atoms: _129  and  _130
REMARK   48  A    between atoms: _133  and  _135
REMARK   49  A    between atoms: _135  and  _136
REMARK   50  A    between atoms: _135  and  _138
REMARK   51  A    between atoms: _141  and  _143
REMARK   52  A    between atoms: _143  and  _144
REMARK   53  A    between atoms: _143  and  _146
REMARK   54  A    between atoms: _149  and  _151
REMARK   55  A    between atoms: _151  and  _152
REMARK   56  A    between atoms: _155  and  _157
REMARK   57  A    between atoms: _157  and  _158
REMARK   58  A    between atoms: _157  and  _160
REMARK   59  A    between atoms: _160  and  _161
REMARK   60  A    between atoms: _165  and  ZN_365
REMARK   61  A    between atoms: _166  and  _168
REMARK   62  A    between atoms: _168  and  _169
REMARK   63  A    between atoms: _168  and  _171
REMARK   64  A    between atoms: _171  and  _172
REMARK   65  A    between atoms: _172  and  _173
REMARK   66  A    between atoms: _176  and  _178
REMARK   67  A    between atoms: _178  and  _179
REMARK   68  A    between atoms: _178  and  _181
REMARK   69  A    between atoms: _181  and  _182
REMARK   70  A    between atoms: _186  and  ZN_365
REMARK   71  A    between atoms: _187  and  _189
REMARK   72  A    between atoms: _189  and  _190
REMARK   73  A    between atoms: _189  and  _192
REMARK   74  A    between atoms: _192  and  _193
REMARK   75  A    between atoms: _198  and  _199
REMARK   76  A    between atoms: _201  and  _203
REMARK   77  A    between atoms: _203  and  _204
REMARK   78  A    between atoms: _203  and  _206
REMARK   79  A    between atoms: _206  and  _207
REMARK   80  A    between atoms: _212  and  _214
REMARK   81  A    between atoms: _214  and  _215
REMARK   82  A    between atoms: _214  and  _217
REMARK   83  A    between atoms: _217  and  _218
REMARK   84  A    between atoms: _218  and  _219
REMARK   85  A    between atoms: _219  and  _220
REMARK   86  A    between atoms: _220  and  ZN_365
REMARK   87  A    between atoms: _222  and  _224
REMARK   88  A    between atoms: _224  and  _225
REMARK   89  A    between atoms: _224  and  _227
REMARK   90  A    between atoms: _227  and  _228
REMARK   91  A    between atoms: _230  and  _232
REMARK   92  A    between atoms: _232  and  _233
REMARK   93  A    between atoms: _232  and  _235
REMARK   94  A    between atoms: _235  and  _236
REMARK   95  A    between atoms: _239  and  _241
REMARK   96  A    between atoms: _241  and  _242
REMARK   97  A    between atoms: _241  and  _244
REMARK   98  A    between atoms: _244  and  _245
REMARK   99  A    between atoms: _248  and  _250
REMARK  100  A    between atoms: _250  and  _251
REMARK  101  A    between atoms: _253  and  _255
REMARK  102  A    between atoms: _255  and  _256
REMARK  103  A    between atoms: _255  and  _258
REMARK  104  A    between atoms: _258  and  _259
REMARK  105  A    between atoms: _259  and  _260
REMARK  106  A    between atoms: _263  and  _265
REMARK  107  A    between atoms: _265  and  _266
REMARK  108  A    between atoms: _265  and  _268
REMARK  109  A    between atoms: _268  and  _269
REMARK  110  A    between atoms: _272  and  _274
REMARK  111  A    between atoms: _274  and  _275
REMARK  112  A    between atoms: _274  and  _277
REMARK  113  A    between atoms: _280  and  _282
REMARK  114  A    between atoms: _282  and  _283
REMARK  115  A    between atoms: _282  and  _285
REMARK  116  A    between atoms: _285  and  _286
REMARK  117  A    between atoms: _291  and  _292
REMARK  118  A    between atoms: _294  and  _296
REMARK  119  A    between atoms: _296  and  _297
REMARK  120  A    between atoms: _296  and  _299
REMARK  121  A    between atoms: _299  and  _300
REMARK  122  A    between atoms: _303  and  _305
REMARK  123  A    between atoms: _305  and  _306
REMARK  124  A    between atoms: _305  and  _308
REMARK  125  A    between atoms: _308  and  _309
REMARK  126  A    between atoms: _309  and  _310
REMARK  127  A    between atoms: _310  and  _311
REMARK  128  A    between atoms: _320  and  _322
REMARK  129  A    between atoms: _322  and  _323
REMARK  130  A    between atoms: _322  and  _325
REMARK  131  A    between atoms: _325  and  _326
REMARK  132  A    between atoms: _329  and  _331
REMARK  133  A    between atoms: _331  and  _332
REMARK  134  A    between atoms: _331  and  _334
REMARK  135  A    between atoms: _337  and  _339
REMARK  136  A    between atoms: _339  and  _340
REMARK  137  A    between atoms: _339  and  _342
REMARK  138  A    between atoms: _342  and  _343
REMARK  139  A    between atoms: _348  and  _350
REMARK  140  A    between atoms: _350  and  _351
REMARK  141  A    between atoms: _350  and  _353
REMARK  142  A    between atoms: _353  and  _354
REMARK  143  A    between atoms: _357  and  _359
REMARK  144  A    between atoms: _359  and  _360
REMARK  145  A    between atoms: _359  and  _362
REMARK  146  A    between atoms: _362  and  _363
REMARK                            x       y       z     vdW  Elec       q    Type
REMARK                         _______ _______ _______ _____ _____    ______ ____
ROOT
ATOM      1  C   UNK A   5      35.661  49.501  -3.404  0.00  0.00    +0.000 C 
ENDROOT
BRANCH   1   3
ATOM      2  C   ALA A   4      34.332  51.360  -2.423  0.00  0.00    +0.000 C 
ATOM      3  N   UNK A   5      35.000  50.206  -2.280  0.00  0.00    +0.000 N 
ATOM      4  H   UNK A   5      35.057  49.784  -1.331  0.00  0.00    +0.000 HD
ATOM      5  O   ALA A   4      34.219  51.925  -3.516  0.00  0.00    +0.000 OA
BRANCH   2   6
ATOM      6  CA  ALA A   4      33.655  51.917  -1.182  0.00  0.00    +0.000 C 
ATOM      7  CB  ALA A   4      34.533  52.983  -0.544  0.00  0.00    +0.000 C 
BRANCH   6   9
ATOM      8  C   VAL A   3      32.279  50.016  -0.385  0.00  0.00    +0.000 C 
ATOM      9  N   ALA A   4      33.290  50.930  -0.157  0.00  0.00    +0.000 N 
ATOM     10  H   ALA A   4      33.798  50.919   0.750  0.00  0.00    +0.000 HD
ATOM     11  O   VAL A   3      31.745  49.942  -1.457  0.00  0.00    +0.000 OA
BRANCH   8  12
ATOM     12  CA  VAL A   3      31.903  49.001   0.705  0.00  0.00    +0.000 C 
BRANCH  12  14
ATOM     13  C   UNK A   2      34.037  47.591   0.292  0.00  0.00    +0.000 C 
ATOM     14  N   VAL A   3      33.177  48.267   1.126  0.00  0.00    +0.000 N 
ATOM     15  H   VAL A   3      33.416  48.280   2.138  0.00  0.00    +0.000 HD
ATOM     16  O   UNK A   2      33.867  47.457  -0.953  0.00  0.00    +0.000 OA
BRANCH  13  17
ATOM     17  C   UNK A   2      35.310  46.993   1.008  0.00  0.00    +0.000 C 
BRANCH  17  19
ATOM     18  C   UNK A   1      36.584  49.150   1.310  0.00  0.00    +0.000 C 
ATOM     19  N   UNK A   2      35.962  48.045   1.818  0.00  0.00    +0.000 N 
ATOM     20  H   UNK A   2      35.946  47.935   2.852  0.00  0.00    +0.000 HD
ATOM     21  O   UNK A   1      36.632  49.369   0.106  0.00  0.00    +0.000 OA
BRANCH  18  22
ATOM     22  C   UNK A   1      37.178  50.167   2.265  0.00  0.00    +0.000 C 
BRANCH  22  23
ATOM     23  N   UNK A   1      36.432  50.260   3.533  0.00  0.00    +0.000 NA
ATOM     24  H   UNK A   1      36.901  49.986   4.420  0.00  0.00    +0.000 HD
ENDBRANCH  22  23
BRANCH  22  25
ATOM     25  C   UNK A   1      38.701  50.044   2.471  0.00  0.00    +0.000 C 
BRANCH  25  26
ATOM     26  C   UNK A   1      39.127  48.855   3.340  0.00  0.00    +0.000 C 
ATOM     27  O   UNK A   1      38.241  48.062   3.926  0.00  0.00    +0.000 OA
ATOM     28  O   UNK A   1      40.282  48.717   3.608  0.00  0.00    +0.000 OA
ENDBRANCH  25  26
ENDBRANCH  22  25
ENDBRANCH  18  22
ENDBRANCH  17  19
BRANCH  17  29
ATOM     29  C   UNK A   2      34.954  45.794   1.927  0.00  0.00    +0.000 C 
ATOM     30  C   UNK A   2      36.265  45.120   2.277  0.00  0.00    +0.000 C 
ATOM     31  C   UNK A   2      34.090  44.800   1.241  0.00  0.00    +0.000 C 
ENDBRANCH  17  29
ENDBRANCH  13  17
ENDBRANCH  12  14
BRANCH  12  32
ATOM     32  CB  VAL A   3      31.054  49.641   1.818  0.00  0.00    +0.000 C 
ATOM     33  CG2 VAL A   3      30.572  48.555   2.814  0.00  0.00    +0.000 C 
ATOM     34  CG1 VAL A   3      29.929  50.412   1.120  0.00  0.00    +0.000 C 
ENDBRANCH  12  32
ENDBRANCH   8  12
ENDBRANCH   6   9
ENDBRANCH   2   6
ENDBRANCH   1   3
BRANCH   1  35
ATOM     35  C   UNK A   5      34.528  49.103  -4.353  0.00  0.00    +0.000 C 
ATOM     36  N   GLU A   6      33.503  48.541  -3.659  0.00  0.00    +0.000 N 
ATOM     37  H   GLU A   6      33.548  48.438  -2.625  0.00  0.00    +0.000 HD
ATOM     38  O   UNK A   5      34.586  49.266  -5.618  0.00  0.00    +0.000 OA
BRANCH  36  39
ATOM     39  CA  GLU A   6      32.339  48.087  -4.411  0.00  0.00    +0.000 C 
BRANCH  39  40
ATOM     40  C   GLU A   6      31.567  49.124  -5.253  0.00  0.00    +0.000 C 
ATOM     41  O   GLU A   6      31.249  48.999  -6.471  0.00  0.00    +0.000 OA
ENDBRANCH  39  40
BRANCH  39  42
ATOM     42  CB  GLU A   6      31.467  47.143  -3.566  0.00  0.00    +0.000 C 
BRANCH  42  43
ATOM     43  CG  GLU A   6      32.106  45.802  -3.022  0.00  0.00    +0.000 C 
BRANCH  43  44
ATOM     44  CD  GLU A   6      32.906  44.984  -3.994  0.00  0.00    +0.000 C 
ATOM     45  OE2 GLU A   6      33.823  44.334  -3.412  0.00  0.00    +0.000 OA
ATOM     46  OE1 GLU A   6      32.778  44.927  -5.217  0.00  0.00    +0.000 OA
ENDBRANCH  43  44
ENDBRANCH  42  43
ENDBRANCH  39  42
ENDBRANCH  36  39
ENDBRANCH   1  35
BRANCH   1  47
ATOM     47  C   UNK A   5      36.500  48.335  -2.793  0.00  0.00    +0.000 C 
BRANCH  47  48
ATOM     48  C   UNK A   5      37.073  47.393  -3.825  0.00  0.00    +0.000 A 
ATOM     49  N   UNK A   5      38.409  47.327  -4.173  0.00  0.00    +0.000 NA
ATOM     50  C   UNK A   5      38.584  46.480  -5.111  0.00  0.00    +0.000 A 
ATOM     51  N   UNK A   5      37.411  45.928  -5.340  0.00  0.00    +0.000 N 
ATOM     52  C   UNK A   5      36.435  46.492  -4.527  0.00  0.00    +0.000 A 
BRANCH  51  53
ATOM     53 ZN   UNK A   5      36.950  44.771  -7.082  0.00  0.00    +0.000 Zn
BRANCH  53  54
ATOM     54  N   UNK A   1      35.651  46.074  -8.086  0.00  0.00    +0.000 N 
ATOM     55  C   UNK A   1      34.388  46.520  -7.799  0.00  0.00    +0.000 A 
ATOM     56  C   UNK A   1      34.068  47.313  -8.828  0.00  0.00    +0.000 A 
ATOM     57  N   UNK A   1      35.116  47.305  -9.737  0.00  0.00    +0.000 NA
ATOM     58  C   UNK A   1      36.059  46.530  -9.271  0.00  0.00    +0.000 A 
BRANCH  56  59
ATOM     59  C   UNK A   1      32.769  48.084  -9.055  0.00  0.00    +0.000 C 
BRANCH  59  60
ATOM     60  C   UNK A   1      33.062  49.567  -9.453  0.00  0.00    +0.000 C 
BRANCH  60  61
ATOM     61  N   UNK A   1      33.180  50.358  -8.225  0.00  0.00    +0.000 NA
ATOM     62  H   UNK A   1      33.068  49.887  -7.305  0.00  0.00    +0.000 HD
ENDBRANCH  60  61
BRANCH  60  63
ATOM     63  C   UNK A   1      31.887  50.129 -10.257  0.00  0.00    +0.000 C 
ATOM     64  O   UNK A   1      31.929  50.144 -11.484  0.00  0.00    +0.000 OA
ENDBRANCH  60  63
ENDBRANCH  59  60
ENDBRANCH  56  59
ENDBRANCH  53  54
BRANCH  53  65
ATOM     65  O   UNK A   2      38.175  44.401  -8.621  0.00  0.00    +0.000 OA
BRANCH  65  66
ATOM     66  C   UNK A   2      39.373  44.441  -8.451  0.00  0.00    +0.000 C 
ATOM     67  O   UNK A   2      39.892  44.553  -7.251  0.00  0.00    +0.000 OA
BRANCH  66  68
ATOM     68  C   UNK A   2      40.385  44.376  -9.570  0.00  0.00    +0.000 C 
BRANCH  68  69
ATOM     69  C   UNK A   2      41.347  45.536  -9.386  0.00  0.00    +0.000 C 
BRANCH  69  70
ATOM     70  C   UNK A   2      40.550  46.873  -9.389  0.00  0.00    +0.000 C 
BRANCH  70  71
ATOM     71  N   UNK A   2      40.333  47.254 -10.820  0.00  0.00    +0.000 N 
ATOM     72  C   UNK A   1      39.651  48.365 -11.216  0.00  0.00    +0.000 C 
ATOM     73  O   UNK A   1      39.154  49.119 -10.396  0.00  0.00    +0.000 OA
ATOM     74  H   UNK A   2      40.726  46.634 -11.556  0.00  0.00    +0.000 HD
BRANCH  72  75
ATOM     75  C   UNK A   1      39.527  48.672 -12.712  0.00  0.00    +0.000 C 
BRANCH  75  76
ATOM     76  N   UNK A   1      40.861  48.659 -13.308  0.00  0.00    +0.000 NA
ATOM     77  H   UNK A   1      41.033  48.055 -14.137  0.00  0.00    +0.000 HD
ENDBRANCH  75  76
BRANCH  75  78
ATOM     78  C   UNK A   1      38.652  47.627 -13.541  0.00  0.00    +0.000 C 
BRANCH  78  79
ATOM     79  C   UNK A   1      37.171  47.776 -13.250  0.00  0.00    +0.000 C 
ATOM     80  O   UNK A   1      36.862  47.990 -12.088  0.00  0.00    +0.000 OA
ATOM     81  N   UNK A   1      36.292  47.761 -14.247  0.00  0.00    +0.000 N 
ATOM     82  H   UNK A   1      35.285  47.937 -14.055  0.00  0.00    +0.000 HD
ATOM     83  H   UNK A   1      36.611  47.573 -15.219  0.00  0.00    +0.000 HD
ENDBRANCH  78  79
ENDBRANCH  75  78
ENDBRANCH  72  75
ENDBRANCH  70  71
BRANCH  70  84
ATOM     84  C   UNK A   2      41.332  47.952  -8.577  0.00  0.00    +0.000 C 
ATOM     85  O   UNK A   2      40.954  48.248  -7.461  0.00  0.00    +0.000 OA
ENDBRANCH  70  84
ENDBRANCH  69  70
ENDBRANCH  68  69
ENDBRANCH  66  68
ENDBRANCH  65  66
ENDBRANCH  53  65
ENDBRANCH  51  53
ENDBRANCH  47  48
ENDBRANCH   1  47
TORSDOF 38
REMARK  Name = ../refined-set-2016/1zdp/1zdp_pocket.pdb
REMARK  146 active torsions:
REMARK  status: ('A' for Active; 'I' for Inactive)
REMARK    1  A    between atoms: _1  and  _3
REMARK    2  A    between atoms: _3  and  _4
REMARK    3  A    between atoms: _3  and  _6
REMARK    4  A    between atoms: _6  and  _7
REMARK    5  A    between atoms: _12  and  _13
REMARK    6  A    between atoms: _15  and  _17
REMARK    7  A    between atoms: _17  and  _18
REMARK    8  A    between atoms: _17  and  _20
REMARK    9  A    between atoms: _20  and  _21
REMARK   10  A    between atoms: _26  and  _28
REMARK   11  A    between atoms: _28  and  _29
REMARK   12  A    between atoms: _28  and  _31
REMARK   13  A    between atoms: _31  and  _32
REMARK   14  A    between atoms: _37  and  _39
REMARK   15  A    between atoms: _39  and  _40
REMARK   16  A    between atoms: _43  and  _45
REMARK   17  A    between atoms: _45  and  _46
REMARK   18  A    between atoms: _45  and  _48
REMARK   19  A    between atoms: _48  and  _49
REMARK   20  A    between atoms: _55  and  _57
REMARK   21  A    between atoms: _57  and  _58
REMARK   22  A    between atoms: _57  and  _60
REMARK   23  A    between atoms: _60  and  _61
REMARK   24  A    between atoms: _71  and  _73
REMARK   25  A    between atoms: _73  and  _74
REMARK   26  A    between atoms: _73  and  _76
REMARK   27  A    between atoms: _79  and  _81
REMARK   28  A    between atoms: _81  and  _82
REMARK   29  A    between atoms: _81  and  _84
REMARK   30  A    between atoms: _84  and  _85
REMARK   31  A    between atoms: _90  and  _91
REMARK   32  A    between atoms: _93  and  _95
REMARK   33  A    between atoms: _95  and  _96
REMARK   34  A    between atoms: _98  and  _100
REMARK   35  A    between atoms: _100  and  _101
REMARK   36  A    between atoms: _100  and  _103
REMARK   37  A    between atoms: _103  and  _104
REMARK   38  A    between atoms: _110  and  _112
REMARK   39  A    between atoms: _112  and  _113
REMARK   40  A    between atoms: _112  and  _115
REMARK   41  A    between atoms: _115  and  _116
REMARK   42  A    between atoms: _119  and  _121
REMARK   43  A    between atoms: _121  and  _122
REMARK   44  A    between atoms: _124  and  _126
REMARK   45  A    between atoms: _126  and  _127
REMARK   46  A    between atoms: _126  and  _129
REMARK   47  A    between atoms: _129  and  _130
REMARK   48  A    between atoms: _133  and  _135
REMARK   49  A    between atoms: _135  and  _136
REMARK   50  A    between atoms: _135  and  _138
REMARK   51  A    between atoms: _141  and  _143
REMARK   52  A    between atoms: _143  and  _144
REMARK   53  A    between atoms: _143  and  _146
REMARK   54  A    between atoms: _149  and  _151
REMARK   55  A    between atoms: _151  and  _152
REMARK   56  A    between atoms: _155  and  _157
REMARK   57  A    between atoms: _157  and  _158
REMARK   58  A    between atoms: _157  and  _160
REMARK   59  A    between atoms: _160  and  _161
REMARK   60  A    between atoms: _165  and  ZN_365
REMARK   61  A    between atoms: _166  and  _168
REMARK   62  A    between atoms: _168  and  _169
REMARK   63  A    between atoms: _168  and  _171
REMARK   64  A    between atoms: _171  and  _172
REMARK   65  A    between atoms: _172  and  _173
REMARK   66  A    between atoms: _176  and  _178
REMARK   67  A    between atoms: _178  and  _179
REMARK   68  A    between atoms: _178  and  _181
REMARK   69  A    between atoms: _181  and  _182
REMARK   70  A    between atoms: _186  and  ZN_365
REMARK   71  A    between atoms: _187  and  _189
REMARK   72  A    between atoms: _189  and  _190
REMARK   73  A    between atoms: _189  and  _192
REMARK   74  A    between atoms: _192  and  _193
REMARK   75  A    between atoms: _198  and  _199
REMARK   76  A    between atoms: _201  and  _203
REMARK   77  A    between atoms: _203  and  _204
REMARK   78  A    between atoms: _203  and  _206
REMARK   79  A    between atoms: _206  and  _207
REMARK   80  A    between atoms: _212  and  _214
REMARK   81  A    between atoms: _214  and  _215
REMARK   82  A    between atoms: _214  and  _217
REMARK   83  A    between atoms: _217  and  _218
REMARK   84  A    between atoms: _218  and  _219
REMARK   85  A    between atoms: _219  and  _220
REMARK   86  A    between atoms: _220  and  ZN_365
REMARK   87  A    between atoms: _222  and  _224
REMARK   88  A    between atoms: _224  and  _225
REMARK   89  A    between atoms: _224  and  _227
REMARK   90  A    between atoms: _227  and  _228
REMARK   91  A    between atoms: _230  and  _232
REMARK   92  A    between atoms: _232  and  _233
REMARK   93  A    between atoms: _232  and  _235
REMARK   94  A    between atoms: _235  and  _236
REMARK   95  A    between atoms: _239  and  _241
REMARK   96  A    between atoms: _241  and  _242
REMARK   97  A    between atoms: _241  and  _244
REMARK   98  A    between atoms: _244  and  _245
REMARK   99  A    between atoms: _248  and  _250
REMARK  100  A    between atoms: _250  and  _251
REMARK  101  A    between atoms: _253  and  _255
REMARK  102  A    between atoms: _255  and  _256
REMARK  103  A    between atoms: _255  and  _258
REMARK  104  A    between atoms: _258  and  _259
REMARK  105  A    between atoms: _259  and  _260
REMARK  106  A    between atoms: _263  and  _265
REMARK  107  A    between atoms: _265  and  _266
REMARK  108  A    between atoms: _265  and  _268
REMARK  109  A    between atoms: _268  and  _269
REMARK  110  A    between atoms: _272  and  _274
REMARK  111  A    between atoms: _274  and  _275
REMARK  112  A    between atoms: _274  and  _277
REMARK  113  A    between atoms: _280  and  _282
REMARK  114  A    between atoms: _282  and  _283
REMARK  115  A    between atoms: _282  and  _285
REMARK  116  A    between atoms: _285  and  _286
REMARK  117  A    between atoms: _291  and  _292
REMARK  118  A    between atoms: _294  and  _296
REMARK  119  A    between atoms: _296  and  _297
REMARK  120  A    between atoms: _296  and  _299
REMARK  121  A    between atoms: _299  and  _300
REMARK  122  A    between atoms: _303  and  _305
REMARK  123  A    between atoms: _305  and  _306
REMARK  124  A    between atoms: _305  and  _308
REMARK  125  A    between atoms: _308  and  _309
REMARK  126  A    between atoms: _309  and  _310
REMARK  127  A    between atoms: _310  and  _311
REMARK  128  A    between atoms: _320  and  _322
REMARK  129  A    between atoms: _322  and  _323
REMARK  130  A    between atoms: _322  and  _325
REMARK  131  A    between atoms: _325  and  _326
REMARK  132  A    between atoms: _329  and  _331
REMARK  133  A    between atoms: _331  and  _332
REMARK  134  A    between atoms: _331  and  _334
REMARK  135  A    between atoms: _337  and  _339
REMARK  136  A    between atoms: _339  and  _340
REMARK  137  A    between atoms: _339  and  _342
REMARK  138  A    between atoms: _342  and  _343
REMARK  139  A    between atoms: _348  and  _350
REMARK  140  A    between atoms: _350  and  _351
REMARK  141  A    between atoms: _350  and  _353
REMARK  142  A    between atoms: _353  and  _354
REMARK  143  A    between atoms: _357  and  _359
REMARK  144  A    between atoms: _359  and  _360
REMARK  145  A    between atoms: _359  and  _362
REMARK  146  A    between atoms: _362  and  _363
REMARK                            x       y       z     vdW  Elec       q    Type
REMARK                         _______ _______ _______ _____ _____    ______ ____
ROOT
ATOM      1  CG  TYR A   1      36.581  42.645 -14.014  0.00  0.00    -0.020 A 
ATOM      2  CD2 TYR A   1      36.898  43.813 -13.308  0.00  0.00    -0.001 A 
ATOM      3  CE2 TYR A   1      37.199  43.810 -11.940  0.00  0.00    +0.036 A 
ATOM      4  CZ  TYR A   1      37.156  42.585 -11.259  0.00  0.00    +0.134 A 
ATOM      5  CE1 TYR A   1      36.836  41.404 -11.936  0.00  0.00    +0.036 A 
ATOM      6  CD1 TYR A   1      36.567  41.439 -13.311  0.00  0.00    -0.001 A 
ENDROOT
BRANCH   4   7
ATOM      7  OH  TYR A   1      37.411  42.546  -9.913  0.00  0.00    -0.506 OA
ATOM      8  HH  TYR A   1      38.325  42.887  -9.741  0.00  0.00    +0.292 HD
ENDBRANCH   4   7
BRANCH   1   9
ATOM      9  CB  TYR A   1      36.235  42.650 -15.494  0.00  0.00    +0.051 C 
BRANCH   9  10
ATOM     10  CA  TYR A   1      37.351  43.169 -16.430  0.00  0.00    +0.137 C 
BRANCH  10  11
ATOM     11  N   TYR A   1      36.768  43.888 -17.519  0.00  0.00    -0.239 NA
ATOM     12  H   TYR A   1      35.827  43.621 -17.873  0.00  0.00    +0.142 HD
ENDBRANCH  10  11
BRANCH  10  13
ATOM     13  C   TYR A   1      38.287  42.068 -16.780  0.00  0.00    +0.224 C 
ATOM     14  O   TYR A   1      38.061  40.959 -16.398  0.00  0.00    -0.287 OA
ENDBRANCH  10  13
ENDBRANCH   9  10
ENDBRANCH   1   9
TORSDOF 5
REMARK  Name = ../refined-set-2016/1zdp/1zdp_pocket.pdb
REMARK  146 active torsions:
REMARK  status: ('A' for Active; 'I' for Inactive)
REMARK    1  A    between atoms: _1  and  _3
REMARK    2  A    between atoms: _3  and  _4
REMARK    3  A    between atoms: _3  and  _6
REMARK    4  A    between atoms: _6  and  _7
REMARK    5  A    between atoms: _12  and  _13
REMARK    6  A    between atoms: _15  and  _17
REMARK    7  A    between atoms: _17  and  _18
REMARK    8  A    between atoms: _17  and  _20
REMARK    9  A    between atoms: _20  and  _21
REMARK   10  A    between atoms: _26  and  _28
REMARK   11  A    between atoms: _28  and  _29
REMARK   12  A    between atoms: _28  and  _31
REMARK   13  A    between atoms: _31  and  _32
REMARK   14  A    between atoms: _37  and  _39
REMARK   15  A    between atoms: _39  and  _40
REMARK   16  A    between atoms: _43  and  _45
REMARK   17  A    between atoms: _45  and  _46
REMARK   18  A    between atoms: _45  and  _48
REMARK   19  A    between atoms: _48  and  _49
REMARK   20  A    between atoms: _55  and  _57
REMARK   21  A    between atoms: _57  and  _58
REMARK   22  A    between atoms: _57  and  _60
REMARK   23  A    between atoms: _60  and  _61
REMARK   24  A    between atoms: _71  and  _73
REMARK   25  A    between atoms: _73  and  _74
REMARK   26  A    between atoms: _73  and  _76
REMARK   27  A    between atoms: _79  and  _81
REMARK   28  A    between atoms: _81  and  _82
REMARK   29  A    between atoms: _81  and  _84
REMARK   30  A    between atoms: _84  and  _85
REMARK   31  A    between atoms: _90  and  _91
REMARK   32  A    between atoms: _93  and  _95
REMARK   33  A    between atoms: _95  and  _96
REMARK   34  A    between atoms: _98  and  _100
REMARK   35  A    between atoms: _100  and  _101
REMARK   36  A    between atoms: _100  and  _103
REMARK   37  A    between atoms: _103  and  _104
REMARK   38  A    between atoms: _110  and  _112
REMARK   39  A    between atoms: _112  and  _113
REMARK   40  A    between atoms: _112  and  _115
REMARK   41  A    between atoms: _115  and  _116
REMARK   42  A    between atoms: _119  and  _121
REMARK   43  A    between atoms: _121  and  _122
REMARK   44  A    between atoms: _124  and  _126
REMARK   45  A    between atoms: _126  and  _127
REMARK   46  A    between atoms: _126  and  _129
REMARK   47  A    between atoms: _129  and  _130
REMARK   48  A    between atoms: _133  and  _135
REMARK   49  A    between atoms: _135  and  _136
REMARK   50  A    between atoms: _135  and  _138
REMARK   51  A    between atoms: _141  and  _143
REMARK   52  A    between atoms: _143  and  _144
REMARK   53  A    between atoms: _143  and  _146
REMARK   54  A    between atoms: _149  and  _151
REMARK   55  A    between atoms: _151  and  _152
REMARK   56  A    between atoms: _155  and  _157
REMARK   57  A    between atoms: _157  and  _158
REMARK   58  A    between atoms: _157  and  _160
REMARK   59  A    between atoms: _160  and  _161
REMARK   60  A    between atoms: _165  and  ZN_365
REMARK   61  A    between atoms: _166  and  _168
REMARK   62  A    between atoms: _168  and  _169
REMARK   63  A    between atoms: _168  and  _171
REMARK   64  A    between atoms: _171  and  _172
REMARK   65  A    between atoms: _172  and  _173
REMARK   66  A    between atoms: _176  and  _178
REMARK   67  A    between atoms: _178  and  _179
REMARK   68  A    between atoms: _178  and  _181
REMARK   69  A    between atoms: _181  and  _182
REMARK   70  A    between atoms: _186  and  ZN_365
REMARK   71  A    between atoms: _187  and  _189
REMARK   72  A    between atoms: _189  and  _190
REMARK   73  A    between atoms: _189  and  _192
REMARK   74  A    between atoms: _192  and  _193
REMARK   75  A    between atoms: _198  and  _199
REMARK   76  A    between atoms: _201  and  _203
REMARK   77  A    between atoms: _203  and  _204
REMARK   78  A    between atoms: _203  and  _206
REMARK   79  A    between atoms: _206  and  _207
REMARK   80  A    between atoms: _212  and  _214
REMARK   81  A    between atoms: _214  and  _215
REMARK   82  A    between atoms: _214  and  _217
REMARK   83  A    between atoms: _217  and  _218
REMARK   84  A    between atoms: _218  and  _219
REMARK   85  A    between atoms: _219  and  _220
REMARK   86  A    between atoms: _220  and  ZN_365
REMARK   87  A    between atoms: _222  and  _224
REMARK   88  A    between atoms: _224  and  _225
REMARK   89  A    between atoms: _224  and  _227
REMARK   90  A    between atoms: _227  and  _228
REMARK   91  A    between atoms: _230  and  _232
REMARK   92  A    between atoms: _232  and  _233
REMARK   93  A    between atoms: _232  and  _235
REMARK   94  A    between atoms: _235  and  _236
REMARK   95  A    between atoms: _239  and  _241
REMARK   96  A    between atoms: _241  and  _242
REMARK   97  A    between atoms: _241  and  _244
REMARK   98  A    between atoms: _244  and  _245
REMARK   99  A    between atoms: _248  and  _250
REMARK  100  A    between atoms: _250  and  _251
REMARK  101  A    between atoms: _253  and  _255
REMARK  102  A    between atoms: _255  and  _256
REMARK  103  A    between atoms: _255  and  _258
REMARK  104  A    between atoms: _258  and  _259
REMARK  105  A    between atoms: _259  and  _260
REMARK  106  A    between atoms: _263  and  _265
REMARK  107  A    between atoms: _265  and  _266
REMARK  108  A    between atoms: _265  and  _268
REMARK  109  A    between atoms: _268  and  _269
REMARK  110  A    between atoms: _272  and  _274
REMARK  111  A    between atoms: _274  and  _275
REMARK  112  A    between atoms: _274  and  _277
REMARK  113  A    between atoms: _280  and  _282
REMARK  114  A    between atoms: _282  and  _283
REMARK  115  A    between atoms: _282  and  _285
REMARK  116  A    between atoms: _285  and  _286
REMARK  117  A    between atoms: _291  and  _292
REMARK  118  A    between atoms: _294  and  _296
REMARK  119  A    between atoms: _296  and  _297
REMARK  120  A    between atoms: _296  and  _299
REMARK  121  A    between atoms: _299  and  _300
REMARK  122  A    between atoms: _303  and  _305
REMARK  123  A    between atoms: _305  and  _306
REMARK  124  A    between atoms: _305  and  _308
REMARK  125  A    between atoms: _308  and  _309
REMARK  126  A    between atoms: _309  and  _310
REMARK  127  A    between atoms: _310  and  _311
REMARK  128  A    between atoms: _320  and  _322
REMARK  129  A    between atoms: _322  and  _323
REMARK  130  A    between atoms: _322  and  _325
REMARK  131  A    between atoms: _325  and  _326
REMARK  132  A    between atoms: _329  and  _331
REMARK  133  A    between atoms: _331  and  _332
REMARK  134  A    between atoms: _331  and  _334
REMARK  135  A    between atoms: _337  and  _339
REMARK  136  A    between atoms: _339  and  _340
REMARK  137  A    between atoms: _339  and  _342
REMARK  138  A    between atoms: _342  and  _343
REMARK  139  A    between atoms: _348  and  _350
REMARK  140  A    between atoms: _350  and  _351
REMARK  141  A    between atoms: _350  and  _353
REMARK  142  A    between atoms: _353  and  _354
REMARK  143  A    between atoms: _357  and  _359
REMARK  144  A    between atoms: _359  and  _360
REMARK  145  A    between atoms: _359  and  _362
REMARK  146  A    between atoms: _362  and  _363
REMARK                            x       y       z     vdW  Elec       q    Type
REMARK                         _______ _______ _______ _____ _____    ______ ____
ROOT
ATOM      1  C   SER A   1      39.123  50.605  -5.229  0.00  0.00    +0.241 C 
ATOM      2  O   SER A   1      38.612  51.023  -4.171  0.00  0.00    -0.274 OA
ATOM      3  N   ASP A   2      40.408  50.112  -5.224  0.00  0.00    -0.298 N 
ATOM      4  H   ASP A   2      40.831  49.758  -6.106  0.00  0.00    +0.150 HD
ENDROOT
BRANCH   1   5
ATOM      5  CA  SER A   1      38.362  50.622  -6.561  0.00  0.00    +0.174 C 
BRANCH   5   6
ATOM      6  N   SER A   1      39.224  50.975  -7.666  0.00  0.00    -0.236 NA
ATOM      7  H   SER A   1      39.355  50.276  -8.425  0.00  0.00    +0.142 HD
ENDBRANCH   5   6
BRANCH   5   8
ATOM      8  CB  SER A   1      37.614  49.309  -6.827  0.00  0.00    +0.163 C 
BRANCH   8   9
ATOM      9  OG  SER A   1      36.492  49.589  -7.677  0.00  0.00    -0.380 OA
ATOM     10  H   SER A   1      36.814  49.974  -8.530  0.00  0.00    +0.211 HD
ENDBRANCH   8   9
ENDBRANCH   5   8
ENDBRANCH   1   5
BRANCH   3  11
ATOM     11  CA  ASP A   2      41.198  50.083  -3.955  0.00  0.00    +0.148 C 
BRANCH  11  12
ATOM     12  C   ASP A   2      41.583  51.516  -3.623  0.00  0.00    +0.227 C 
ATOM     13  O   ASP A   2      41.533  51.877  -2.419  0.00  0.00    -0.286 OA
ENDBRANCH  11  12
BRANCH  11  14
ATOM     14  CB  ASP A   2      42.472  49.188  -3.992  0.00  0.00    +0.142 C 
BRANCH  14  15
ATOM     15  CG  ASP A   2      42.244  47.702  -3.993  0.00  0.00    +0.367 C 
ATOM     16  OD2 ASP A   2      41.060  47.345  -3.569  0.00  0.00    -0.246 OA
ATOM     17  OD1 ASP A   2      43.033  46.899  -4.469  0.00  0.00    -0.246 OA
ENDBRANCH  14  15
ENDBRANCH  11  14
ENDBRANCH   3  11
TORSDOF 8
REMARK  Name = ../refined-set-2016/1zdp/1zdp_pocket.pdb
REMARK  146 active torsions:
REMARK  status: ('A' for Active; 'I' for Inactive)
REMARK    1  A    between atoms: _1  and  _3
REMARK    2  A    between atoms: _3  and  _4
REMARK    3  A    between atoms: _3  and  _6
REMARK    4  A    between atoms: _6  and  _7
REMARK    5  A    between atoms: _12  and  _13
REMARK    6  A    between atoms: _15  and  _17
REMARK    7  A    between atoms: _17  and  _18
REMARK    8  A    between atoms: _17  and  _20
REMARK    9  A    between atoms: _20  and  _21
REMARK   10  A    between atoms: _26  and  _28
REMARK   11  A    between atoms: _28  and  _29
REMARK   12  A    between atoms: _28  and  _31
REMARK   13  A    between atoms: _31  and  _32
REMARK   14  A    between atoms: _37  and  _39
REMARK   15  A    between atoms: _39  and  _40
REMARK   16  A    between atoms: _43  and  _45
REMARK   17  A    between atoms: _45  and  _46
REMARK   18  A    between atoms: _45  and  _48
REMARK   19  A    between atoms: _48  and  _49
REMARK   20  A    between atoms: _55  and  _57
REMARK   21  A    between atoms: _57  and  _58
REMARK   22  A    between atoms: _57  and  _60
REMARK   23  A    between atoms: _60  and  _61
REMARK   24  A    between atoms: _71  and  _73
REMARK   25  A    between atoms: _73  and  _74
REMARK   26  A    between atoms: _73  and  _76
REMARK   27  A    between atoms: _79  and  _81
REMARK   28  A    between atoms: _81  and  _82
REMARK   29  A    between atoms: _81  and  _84
REMARK   30  A    between atoms: _84  and  _85
REMARK   31  A    between atoms: _90  and  _91
REMARK   32  A    between atoms: _93  and  _95
REMARK   33  A    between atoms: _95  and  _96
REMARK   34  A    between atoms: _98  and  _100
REMARK   35  A    between atoms: _100  and  _101
REMARK   36  A    between atoms: _100  and  _103
REMARK   37  A    between atoms: _103  and  _104
REMARK   38  A    between atoms: _110  and  _112
REMARK   39  A    between atoms: _112  and  _113
REMARK   40  A    between atoms: _112  and  _115
REMARK   41  A    between atoms: _115  and  _116
REMARK   42  A    between atoms: _119  and  _121
REMARK   43  A    between atoms: _121  and  _122
REMARK   44  A    between atoms: _124  and  _126
REMARK   45  A    between atoms: _126  and  _127
REMARK   46  A    between atoms: _126  and  _129
REMARK   47  A    between atoms: _129  and  _130
REMARK   48  A    between atoms: _133  and  _135
REMARK   49  A    between atoms: _135  and  _136
REMARK   50  A    between atoms: _135  and  _138
REMARK   51  A    between atoms: _141  and  _143
REMARK   52  A    between atoms: _143  and  _144
REMARK   53  A    between atoms: _143  and  _146
REMARK   54  A    between atoms: _149  and  _151
REMARK   55  A    between atoms: _151  and  _152
REMARK   56  A    between atoms: _155  and  _157
REMARK   57  A    between atoms: _157  and  _158
REMARK   58  A    between atoms: _157  and  _160
REMARK   59  A    between atoms: _160  and  _161
REMARK   60  A    between atoms: _165  and  ZN_365
REMARK   61  A    between atoms: _166  and  _168
REMARK   62  A    between atoms: _168  and  _169
REMARK   63  A    between atoms: _168  and  _171
REMARK   64  A    between atoms: _171  and  _172
REMARK   65  A    between atoms: _172  and  _173
REMARK   66  A    between atoms: _176  and  _178
REMARK   67  A    between atoms: _178  and  _179
REMARK   68  A    between atoms: _178  and  _181
REMARK   69  A    between atoms: _181  and  _182
REMARK   70  A    between atoms: _186  and  ZN_365
REMARK   71  A    between atoms: _187  and  _189
REMARK   72  A    between atoms: _189  and  _190
REMARK   73  A    between atoms: _189  and  _192
REMARK   74  A    between atoms: _192  and  _193
REMARK   75  A    between atoms: _198  and  _199
REMARK   76  A    between atoms: _201  and  _203
REMARK   77  A    between atoms: _203  and  _204
REMARK   78  A    between atoms: _203  and  _206
REMARK   79  A    between atoms: _206  and  _207
REMARK   80  A    between atoms: _212  and  _214
REMARK   81  A    between atoms: _214  and  _215
REMARK   82  A    between atoms: _214  and  _217
REMARK   83  A    between atoms: _217  and  _218
REMARK   84  A    between atoms: _218  and  _219
REMARK   85  A    between atoms: _219  and  _220
REMARK   86  A    between atoms: _220  and  ZN_365
REMARK   87  A    between atoms: _222  and  _224
REMARK   88  A    between atoms: _224  and  _225
REMARK   89  A    between atoms: _224  and  _227
REMARK   90  A    between atoms: _227  and  _228
REMARK   91  A    between atoms: _230  and  _232
REMARK   92  A    between atoms: _232  and  _233
REMARK   93  A    between atoms: _232  and  _235
REMARK   94  A    between atoms: _235  and  _236
REMARK   95  A    between atoms: _239  and  _241
REMARK   96  A    between atoms: _241  and  _242
REMARK   97  A    between atoms: _241  and  _244
REMARK   98  A    between atoms: _244  and  _245
REMARK   99  A    between atoms: _248  and  _250
REMARK  100  A    between atoms: _250  and  _251
REMARK  101  A    between atoms: _253  and  _255
REMARK  102  A    between atoms: _255  and  _256
REMARK  103  A    between atoms: _255  and  _258
REMARK  104  A    between atoms: _258  and  _259
REMARK  105  A    between atoms: _259  and  _260
REMARK  106  A    between atoms: _263  and  _265
REMARK  107  A    between atoms: _265  and  _266
REMARK  108  A    between atoms: _265  and  _268
REMARK  109  A    between atoms: _268  and  _269
REMARK  110  A    between atoms: _272  and  _274
REMARK  111  A    between atoms: _274  and  _275
REMARK  112  A    between atoms: _274  and  _277
REMARK  113  A    between atoms: _280  and  _282
REMARK  114  A    between atoms: _282  and  _283
REMARK  115  A    between atoms: _282  and  _285
REMARK  116  A    between atoms: _285  and  _286
REMARK  117  A    between atoms: _291  and  _292
REMARK  118  A    between atoms: _294  and  _296
REMARK  119  A    between atoms: _296  and  _297
REMARK  120  A    between atoms: _296  and  _299
REMARK  121  A    between atoms: _299  and  _300
REMARK  122  A    between atoms: _303  and  _305
REMARK  123  A    between atoms: _305  and  _306
REMARK  124  A    between atoms: _305  and  _308
REMARK  125  A    between atoms: _308  and  _309
REMARK  126  A    between atoms: _309  and  _310
REMARK  127  A    between atoms: _310  and  _311
REMARK  128  A    between atoms: _320  and  _322
REMARK  129  A    between atoms: _322  and  _323
REMARK  130  A    between atoms: _322  and  _325
REMARK  131  A    between atoms: _325  and  _326
REMARK  132  A    between atoms: _329  and  _331
REMARK  133  A    between atoms: _331  and  _332
REMARK  134  A    between atoms: _331  and  _334
REMARK  135  A    between atoms: _337  and  _339
REMARK  136  A    between atoms: _339  and  _340
REMARK  137  A    between atoms: _339  and  _342
REMARK  138  A    between atoms: _342  and  _343
REMARK  139  A    between atoms: _348  and  _350
REMARK  140  A    between atoms: _350  and  _351
REMARK  141  A    between atoms: _350  and  _353
REMARK  142  A    between atoms: _353  and  _354
REMARK  143  A    between atoms: _357  and  _359
REMARK  144  A    between atoms: _359  and  _360
REMARK  145  A    between atoms: _359  and  _362
REMARK  146  A    between atoms: _362  and  _363
REMARK                            x       y       z     vdW  Elec       q    Type
REMARK                         _______ _______ _______ _____ _____    ______ ____
ROOT
ATOM      1  CA  ASP A   4      38.802  45.247   9.452  0.00  0.00    +0.160 C 
ENDROOT
BRANCH   1   4
ATOM      2  C   GLU A   3      40.915  44.543   8.427  0.00  0.00    +0.241 C 
ATOM      3  O   GLU A   3      41.169  43.750   9.317  0.00  0.00    -0.273 OA
ATOM      4  N   ASP A   4      39.803  45.291   8.422  0.00  0.00    -0.297 N 
ATOM      5  H   ASP A   4      39.656  45.942   7.625  0.00  0.00    +0.150 HD
BRANCH   2   6
ATOM      6  CA  GLU A   3      41.921  44.762   7.329  0.00  0.00    +0.149 C 
BRANCH   6   8
ATOM      7  C   GLY A   2      40.504  44.332   5.445  0.00  0.00    +0.243 C 
ATOM      8  N   GLU A   3      41.425  45.091   6.010  0.00  0.00    -0.297 N 
ATOM      9  H   GLU A   3      41.793  45.924   5.508  0.00  0.00    +0.150 HD
ATOM     10  O   GLY A   2      40.001  43.365   6.008  0.00  0.00    -0.273 OA
BRANCH   7  11
ATOM     11  CA  GLY A   2      40.104  44.698   4.010  0.00  0.00    +0.176 C 
BRANCH  11  13
ATOM     12  C   ILE A   1      42.062  45.567   2.810  0.00  0.00    +0.238 C 
ATOM     13  N   GLY A   2      40.828  45.767   3.367  0.00  0.00    -0.296 N 
ATOM     14  H   GLY A   2      40.401  46.714   3.326  0.00  0.00    +0.150 HD
ATOM     15  O   ILE A   1      42.621  44.435   2.840  0.00  0.00    -0.274 OA
BRANCH  12  16
ATOM     16  CA  ILE A   1      42.693  46.750   2.069  0.00  0.00    +0.145 C 
BRANCH  16  17
ATOM     17  CB  ILE A   1      42.630  46.462   0.546  0.00  0.00    +0.025 C 
ATOM     18  CG2 ILE A   1      41.217  46.024   0.028  0.00  0.00    +0.002 C 
BRANCH  17  19
ATOM     19  CG1 ILE A   1      43.308  47.554  -0.277  0.00  0.00    +0.002 C 
ATOM     20  CD1 ILE A   1      42.518  48.865  -0.166  0.00  0.00    +0.000 C 
ENDBRANCH  17  19
ENDBRANCH  16  17
BRANCH  16  21
ATOM     21  N   ILE A   1      44.049  47.107   2.532  0.00  0.00    -0.238 NA
ATOM     22  H   ILE A   1      44.828  46.438   2.366  0.00  0.00    +0.142 HD
ENDBRANCH  16  21
ENDBRANCH  12  16
ENDBRANCH  11  13
ENDBRANCH   7  11
ENDBRANCH   6   8
BRANCH   6  23
ATOM     23  CB  GLU A   3      42.968  45.784   7.879  0.00  0.00    +0.041 C 
BRANCH  23  24
ATOM     24  CG  GLU A   3      42.408  47.201   8.231  0.00  0.00    +0.116 C 
BRANCH  24  25
ATOM     25  CD  GLU A   3      42.063  47.923   6.970  0.00  0.00    +0.365 C 
ATOM     26  OE2 GLU A   3      41.350  49.029   7.159  0.00  0.00    -0.246 OA
ATOM     27  OE1 GLU A   3      42.482  47.559   5.893  0.00  0.00    -0.246 OA
ENDBRANCH  24  25
ENDBRANCH  23  24
ENDBRANCH   6  23
ENDBRANCH   2   6
ENDBRANCH   1   4
BRANCH   1  28
ATOM     28  C   ASP A   4      37.953  43.982   9.452  0.00  0.00    +0.241 C 
ATOM     29  O   ASP A   4      37.332  43.653  10.458  0.00  0.00    -0.273 OA
ATOM     30  N   VAL A   5      37.881  43.326   8.323  0.00  0.00    -0.297 N 
ATOM     31  H   VAL A   5      38.424  43.635   7.491  0.00  0.00    +0.150 HD
BRANCH  30  32
ATOM     32  CA  VAL A   5      37.008  42.132   8.258  0.00  0.00    +0.148 C 
BRANCH  32  33
ATOM     33  C   VAL A   5      37.757  40.851   7.861  0.00  0.00    +0.240 C 
ATOM     34  O   VAL A   5      37.110  39.830   7.673  0.00  0.00    -0.273 OA
ATOM     35  N   TYR A   6      39.082  40.942   7.657  0.00  0.00    -0.302 N 
ATOM     36  H   TYR A   6      39.571  41.849   7.796  0.00  0.00    +0.150 HD
BRANCH  35  37
ATOM     37  CA  TYR A   6      39.823  39.776   7.245  0.00  0.00    +0.109 C 
BRANCH  37  38
ATOM     38  C   TYR A   6      40.412  39.053   8.425  0.00  0.00    +0.202 C 
ATOM     39  O   TYR A   6      40.824  39.762   9.272  0.00  0.00    -0.219 OA
ENDBRANCH  37  38
BRANCH  37  40
ATOM     40  CB  TYR A   6      40.868  40.240   6.268  0.00  0.00    +0.049 C 
BRANCH  40  41
ATOM     41  CG  TYR A   6      41.708  39.181   5.640  0.00  0.00    -0.020 A 
ATOM     42  CD2 TYR A   6      43.102  39.207   5.757  0.00  0.00    -0.001 A 
ATOM     43  CE2 TYR A   6      43.885  38.232   5.127  0.00  0.00    +0.036 A 
ATOM     44  CZ  TYR A   6      43.274  37.238   4.361  0.00  0.00    +0.134 A 
ATOM     45  CE1 TYR A   6      41.883  37.215   4.224  0.00  0.00    +0.036 A 
ATOM     46  CD1 TYR A   6      41.118  38.199   4.859  0.00  0.00    -0.001 A 
BRANCH  44  47
ATOM     47  OH  TYR A   6      44.024  36.300   3.751  0.00  0.00    -0.506 OA
ATOM     48  HH  TYR A   6      44.649  36.738   3.121  0.00  0.00    +0.292 HD
ENDBRANCH  44  47
ENDBRANCH  40  41
ENDBRANCH  37  40
ENDBRANCH  35  37
ENDBRANCH  32  33
BRANCH  32  49
ATOM     49  CB  VAL A   5      35.874  42.345   7.243  0.00  0.00    +0.027 C 
ATOM     50  CG2 VAL A   5      34.921  43.396   7.767  0.00  0.00    +0.002 C 
ATOM     51  CG1 VAL A   5      36.354  42.669   5.805  0.00  0.00    +0.002 C 
ENDBRANCH  32  49
ENDBRANCH  30  32
ENDBRANCH   1  28
BRANCH   1  52
ATOM     52  CB  ASP A   4      37.857  46.495   9.234  0.00  0.00    +0.143 C 
BRANCH  52  53
ATOM     53  CG  ASP A   4      38.474  47.764   9.822  0.00  0.00    +0.367 C 
ATOM     54  OD2 ASP A   4      39.370  47.675  10.652  0.00  0.00    -0.246 OA
ATOM     55  OD1 ASP A   4      37.986  48.890   9.343  0.00  0.00    -0.246 OA
ENDBRANCH  52  53
ENDBRANCH   1  52
TORSDOF 23
REMARK  Name = ../refined-set-2016/1zdp/1zdp_pocket.pdb
REMARK  146 active torsions:
REMARK  status: ('A' for Active; 'I' for Inactive)
REMARK    1  A    between atoms: _1  and  _3
REMARK    2  A    between atoms: _3  and  _4
REMARK    3  A    between atoms: _3  and  _6
REMARK    4  A    between atoms: _6  and  _7
REMARK    5  A    between atoms: _12  and  _13
REMARK    6  A    between atoms: _15  and  _17
REMARK    7  A    between atoms: _17  and  _18
REMARK    8  A    between atoms: _17  and  _20
REMARK    9  A    between atoms: _20  and  _21
REMARK   10  A    between atoms: _26  and  _28
REMARK   11  A    between atoms: _28  and  _29
REMARK   12  A    between atoms: _28  and  _31
REMARK   13  A    between atoms: _31  and  _32
REMARK   14  A    between atoms: _37  and  _39
REMARK   15  A    between atoms: _39  and  _40
REMARK   16  A    between atoms: _43  and  _45
REMARK   17  A    between atoms: _45  and  _46
REMARK   18  A    between atoms: _45  and  _48
REMARK   19  A    between atoms: _48  and  _49
REMARK   20  A    between atoms: _55  and  _57
REMARK   21  A    between atoms: _57  and  _58
REMARK   22  A    between atoms: _57  and  _60
REMARK   23  A    between atoms: _60  and  _61
REMARK   24  A    between atoms: _71  and  _73
REMARK   25  A    between atoms: _73  and  _74
REMARK   26  A    between atoms: _73  and  _76
REMARK   27  A    between atoms: _79  and  _81
REMARK   28  A    between atoms: _81  and  _82
REMARK   29  A    between atoms: _81  and  _84
REMARK   30  A    between atoms: _84  and  _85
REMARK   31  A    between atoms: _90  and  _91
REMARK   32  A    between atoms: _93  and  _95
REMARK   33  A    between atoms: _95  and  _96
REMARK   34  A    between atoms: _98  and  _100
REMARK   35  A    between atoms: _100  and  _101
REMARK   36  A    between atoms: _100  and  _103
REMARK   37  A    between atoms: _103  and  _104
REMARK   38  A    between atoms: _110  and  _112
REMARK   39  A    between atoms: _112  and  _113
REMARK   40  A    between atoms: _112  and  _115
REMARK   41  A    between atoms: _115  and  _116
REMARK   42  A    between atoms: _119  and  _121
REMARK   43  A    between atoms: _121  and  _122
REMARK   44  A    between atoms: _124  and  _126
REMARK   45  A    between atoms: _126  and  _127
REMARK   46  A    between atoms: _126  and  _129
REMARK   47  A    between atoms: _129  and  _130
REMARK   48  A    between atoms: _133  and  _135
REMARK   49  A    between atoms: _135  and  _136
REMARK   50  A    between atoms: _135  and  _138
REMARK   51  A    between atoms: _141  and  _143
REMARK   52  A    between atoms: _143  and  _144
REMARK   53  A    between atoms: _143  and  _146
REMARK   54  A    between atoms: _149  and  _151
REMARK   55  A    between atoms: _151  and  _152
REMARK   56  A    between atoms: _155  and  _157
REMARK   57  A    between atoms: _157  and  _158
REMARK   58  A    between atoms: _157  and  _160
REMARK   59  A    between atoms: _160  and  _161
REMARK   60  A    between atoms: _165  and  ZN_365
REMARK   61  A    between atoms: _166  and  _168
REMARK   62  A    between atoms: _168  and  _169
REMARK   63  A    between atoms: _168  and  _171
REMARK   64  A    between atoms: _171  and  _172
REMARK   65  A    between atoms: _172  and  _173
REMARK   66  A    between atoms: _176  and  _178
REMARK   67  A    between atoms: _178  and  _179
REMARK   68  A    between atoms: _178  and  _181
REMARK   69  A    between atoms: _181  and  _182
REMARK   70  A    between atoms: _186  and  ZN_365
REMARK   71  A    between atoms: _187  and  _189
REMARK   72  A    between atoms: _189  and  _190
REMARK   73  A    between atoms: _189  and  _192
REMARK   74  A    between atoms: _192  and  _193
REMARK   75  A    between atoms: _198  and  _199
REMARK   76  A    between atoms: _201  and  _203
REMARK   77  A    between atoms: _203  and  _204
REMARK   78  A    between atoms: _203  and  _206
REMARK   79  A    between atoms: _206  and  _207
REMARK   80  A    between atoms: _212  and  _214
REMARK   81  A    between atoms: _214  and  _215
REMARK   82  A    between atoms: _214  and  _217
REMARK   83  A    between atoms: _217  and  _218
REMARK   84  A    between atoms: _218  and  _219
REMARK   85  A    between atoms: _219  and  _220
REMARK   86  A    between atoms: _220  and  ZN_365
REMARK   87  A    between atoms: _222  and  _224
REMARK   88  A    between atoms: _224  and  _225
REMARK   89  A    between atoms: _224  and  _227
REMARK   90  A    between atoms: _227  and  _228
REMARK   91  A    between atoms: _230  and  _232
REMARK   92  A    between atoms: _232  and  _233
REMARK   93  A    between atoms: _232  and  _235
REMARK   94  A    between atoms: _235  and  _236
REMARK   95  A    between atoms: _239  and  _241
REMARK   96  A    between atoms: _241  and  _242
REMARK   97  A    between atoms: _241  and  _244
REMARK   98  A    between atoms: _244  and  _245
REMARK   99  A    between atoms: _248  and  _250
REMARK  100  A    between atoms: _250  and  _251
REMARK  101  A    between atoms: _253  and  _255
REMARK  102  A    between atoms: _255  and  _256
REMARK  103  A    between atoms: _255  and  _258
REMARK  104  A    between atoms: _258  and  _259
REMARK  105  A    between atoms: _259  and  _260
REMARK  106  A    between atoms: _263  and  _265
REMARK  107  A    between atoms: _265  and  _266
REMARK  108  A    between atoms: _265  and  _268
REMARK  109  A    between atoms: _268  and  _269
REMARK  110  A    between atoms: _272  and  _274
REMARK  111  A    between atoms: _274  and  _275
REMARK  112  A    between atoms: _274  and  _277
REMARK  113  A    between atoms: _280  and  _282
REMARK  114  A    between atoms: _282  and  _283
REMARK  115  A    between atoms: _282  and  _285
REMARK  116  A    between atoms: _285  and  _286
REMARK  117  A    between atoms: _291  and  _292
REMARK  118  A    between atoms: _294  and  _296
REMARK  119  A    between atoms: _296  and  _297
REMARK  120  A    between atoms: _296  and  _299
REMARK  121  A    between atoms: _299  and  _300
REMARK  122  A    between atoms: _303  and  _305
REMARK  123  A    between atoms: _305  and  _306
REMARK  124  A    between atoms: _305  and  _308
REMARK  125  A    between atoms: _308  and  _309
REMARK  126  A    between atoms: _309  and  _310
REMARK  127  A    between atoms: _310  and  _311
REMARK  128  A    between atoms: _320  and  _322
REMARK  129  A    between atoms: _322  and  _323
REMARK  130  A    between atoms: _322  and  _325
REMARK  131  A    between atoms: _325  and  _326
REMARK  132  A    between atoms: _329  and  _331
REMARK  133  A    between atoms: _331  and  _332
REMARK  134  A    between atoms: _331  and  _334
REMARK  135  A    between atoms: _337  and  _339
REMARK  136  A    between atoms: _339  and  _340
REMARK  137  A    between atoms: _339  and  _342
REMARK  138  A    between atoms: _342  and  _343
REMARK  139  A    between atoms: _348  and  _350
REMARK  140  A    between atoms: _350  and  _351
REMARK  141  A    between atoms: _350  and  _353
REMARK  142  A    between atoms: _353  and  _354
REMARK  143  A    between atoms: _357  and  _359
REMARK  144  A    between atoms: _359  and  _360
REMARK  145  A    between atoms: _359  and  _362
REMARK  146  A    between atoms: _362  and  _363
REMARK                            x       y       z     vdW  Elec       q    Type
REMARK                         _______ _______ _______ _____ _____    ______ ____
ROOT
ATOM      1  CA  ARG A   2      46.135  43.493  -0.001  0.00  0.00    +0.137 C 
ENDROOT
BRANCH   1   3
ATOM      2  C   LEU A   1      44.982  41.589   1.017  0.00  0.00    +0.238 C 
ATOM      3  N   ARG A   2      45.210  42.904   0.913  0.00  0.00    -0.298 N 
ATOM      4  H   ARG A   2      44.677  43.540   1.541  0.00  0.00    +0.150 HD
ATOM      5  O   LEU A   1      45.466  40.716   0.283  0.00  0.00    -0.274 OA
BRANCH   2   6
ATOM      6  CA  LEU A   1      43.927  41.178   2.063  0.00  0.00    +0.145 C 
BRANCH   6   7
ATOM      7  N   LEU A   1      44.034  41.892   3.320  0.00  0.00    -0.238 NA
ATOM      8  H   LEU A   1      43.343  42.639   3.537  0.00  0.00    +0.142 HD
ENDBRANCH   6   7
BRANCH   6   9
ATOM      9  CB  LEU A   1      42.465  41.335   1.536  0.00  0.00    +0.026 C 
BRANCH   9  10
ATOM     10  CG  LEU A   1      42.172  40.530   0.316  0.00  0.00    +0.002 C 
ATOM     11  CD2 LEU A   1      42.201  39.061   0.735  0.00  0.00    +0.000 C 
ATOM     12  CD1 LEU A   1      40.728  40.865  -0.083  0.00  0.00    +0.000 C 
ENDBRANCH   9  10
ENDBRANCH   6   9
ENDBRANCH   2   6
ENDBRANCH   1   3
BRANCH   1  13
ATOM     13  C   ARG A   2      46.703  44.680   0.739  0.00  0.00    +0.227 C 
ATOM     14  O   ARG A   2      46.063  45.152   1.735  0.00  0.00    -0.286 OA
ENDBRANCH   1  13
BRANCH   1  15
ATOM     15  CB  ARG A   2      45.503  44.058  -1.260  0.00  0.00    +0.031 C 
BRANCH  15  16
ATOM     16  CG  ARG A   2      44.934  43.064  -2.218  0.00  0.00    +0.045 C 
BRANCH  16  17
ATOM     17  CD  ARG A   2      44.476  43.692  -3.544  0.00  0.00    +0.174 C 
BRANCH  17  18
ATOM     18  NE  ARG A   2      43.162  44.319  -3.466  0.00  0.00    -0.265 N 
ATOM     19  HE  ARG A   2      43.124  45.356  -3.390  0.00  0.00    +0.259 HD
ATOM     20  CZ  ARG A   2      41.975  43.637  -3.486  0.00  0.00    +0.342 C 
ATOM     21  NH2 ARG A   2      40.845  44.368  -3.478  0.00  0.00    -0.292 N 
ATOM     22 HH21 ARG A   2      40.898  45.406  -3.457  0.00  0.00    +0.255 HD
ATOM     23 HH22 ARG A   2      39.919  43.894  -3.492  0.00  0.00    +0.255 HD
ATOM     24  NH1 ARG A   2      41.894  42.271  -3.568  0.00  0.00    -0.292 N 
ATOM     25 HH11 ARG A   2      40.964  41.805  -3.580  0.00  0.00    +0.255 HD
ATOM     26 HH12 ARG A   2      42.762  41.701  -3.619  0.00  0.00    +0.255 HD
ENDBRANCH  17  18
ENDBRANCH  16  17
ENDBRANCH  15  16
ENDBRANCH   1  15
TORSDOF 10
REMARK  Name = ../refined-set-2016/1zdp/1zdp_pocket.pdb
REMARK  146 active torsions:
REMARK  status: ('A' for Active; 'I' for Inactive)
REMARK    1  A    between atoms: _1  and  _3
REMARK    2  A    between atoms: _3  and  _4
REMARK    3  A    between atoms: _3  and  _6
REMARK    4  A    between atoms: _6  and  _7
REMARK    5  A    between atoms: _12  and  _13
REMARK    6  A    between atoms: _15  and  _17
REMARK    7  A    between atoms: _17  and  _18
REMARK    8  A    between atoms: _17  and  _20
REMARK    9  A    between atoms: _20  and  _21
REMARK   10  A    between atoms: _26  and  _28
REMARK   11  A    between atoms: _28  and  _29
REMARK   12  A    between atoms: _28  and  _31
REMARK   13  A    between atoms: _31  and  _32
REMARK   14  A    between atoms: _37  and  _39
REMARK   15  A    between atoms: _39  and  _40
REMARK   16  A    between atoms: _43  and  _45
REMARK   17  A    between atoms: _45  and  _46
REMARK   18  A    between atoms: _45  and  _48
REMARK   19  A    between atoms: _48  and  _49
REMARK   20  A    between atoms: _55  and  _57
REMARK   21  A    between atoms: _57  and  _58
REMARK   22  A    between atoms: _57  and  _60
REMARK   23  A    between atoms: _60  and  _61
REMARK   24  A    between atoms: _71  and  _73
REMARK   25  A    between atoms: _73  and  _74
REMARK   26  A    between atoms: _73  and  _76
REMARK   27  A    between atoms: _79  and  _81
REMARK   28  A    between atoms: _81  and  _82
REMARK   29  A    between atoms: _81  and  _84
REMARK   30  A    between atoms: _84  and  _85
REMARK   31  A    between atoms: _90  and  _91
REMARK   32  A    between atoms: _93  and  _95
REMARK   33  A    between atoms: _95  and  _96
REMARK   34  A    between atoms: _98  and  _100
REMARK   35  A    between atoms: _100  and  _101
REMARK   36  A    between atoms: _100  and  _103
REMARK   37  A    between atoms: _103  and  _104
REMARK   38  A    between atoms: _110  and  _112
REMARK   39  A    between atoms: _112  and  _113
REMARK   40  A    between atoms: _112  and  _115
REMARK   41  A    between atoms: _115  and  _116
REMARK   42  A    between atoms: _119  and  _121
REMARK   43  A    between atoms: _121  and  _122
REMARK   44  A    between atoms: _124  and  _126
REMARK   45  A    between atoms: _126  and  _127
REMARK   46  A    between atoms: _126  and  _129
REMARK   47  A    between atoms: _129  and  _130
REMARK   48  A    between atoms: _133  and  _135
REMARK   49  A    between atoms: _135  and  _136
REMARK   50  A    between atoms: _135  and  _138
REMARK   51  A    between atoms: _141  and  _143
REMARK   52  A    between atoms: _143  and  _144
REMARK   53  A    between atoms: _143  and  _146
REMARK   54  A    between atoms: _149  and  _151
REMARK   55  A    between atoms: _151  and  _152
REMARK   56  A    between atoms: _155  and  _157
REMARK   57  A    between atoms: _157  and  _158
REMARK   58  A    between atoms: _157  and  _160
REMARK   59  A    between atoms: _160  and  _161
REMARK   60  A    between atoms: _165  and  ZN_365
REMARK   61  A    between atoms: _166  and  _168
REMARK   62  A    between atoms: _168  and  _169
REMARK   63  A    between atoms: _168  and  _171
REMARK   64  A    between atoms: _171  and  _172
REMARK   65  A    between atoms: _172  and  _173
REMARK   66  A    between atoms: _176  and  _178
REMARK   67  A    between atoms: _178  and  _179
REMARK   68  A    between atoms: _178  and  _181
REMARK   69  A    between atoms: _181  and  _182
REMARK   70  A    between atoms: _186  and  ZN_365
REMARK   71  A    between atoms: _187  and  _189
REMARK   72  A    between atoms: _189  and  _190
REMARK   73  A    between atoms: _189  and  _192
REMARK   74  A    between atoms: _192  and  _193
REMARK   75  A    between atoms: _198  and  _199
REMARK   76  A    between atoms: _201  and  _203
REMARK   77  A    between atoms: _203  and  _204
REMARK   78  A    between atoms: _203  and  _206
REMARK   79  A    between atoms: _206  and  _207
REMARK   80  A    between atoms: _212  and  _214
REMARK   81  A    between atoms: _214  and  _215
REMARK   82  A    between atoms: _214  and  _217
REMARK   83  A    between atoms: _217  and  _218
REMARK   84  A    between atoms: _218  and  _219
REMARK   85  A    between atoms: _219  and  _220
REMARK   86  A    between atoms: _220  and  ZN_365
REMARK   87  A    between atoms: _222  and  _224
REMARK   88  A    between atoms: _224  and  _225
REMARK   89  A    between atoms: _224  and  _227
REMARK   90  A    between atoms: _227  and  _228
REMARK   91  A    between atoms: _230  and  _232
REMARK   92  A    between atoms: _232  and  _233
REMARK   93  A    between atoms: _232  and  _235
REMARK   94  A    between atoms: _235  and  _236
REMARK   95  A    between atoms: _239  and  _241
REMARK   96  A    between atoms: _241  and  _242
REMARK   97  A    between atoms: _241  and  _244
REMARK   98  A    between atoms: _244  and  _245
REMARK   99  A    between atoms: _248  and  _250
REMARK  100  A    between atoms: _250  and  _251
REMARK  101  A    between atoms: _253  and  _255
REMARK  102  A    between atoms: _255  and  _256
REMARK  103  A    between atoms: _255  and  _258
REMARK  104  A    between atoms: _258  and  _259
REMARK  105  A    between atoms: _259  and  _260
REMARK  106  A    between atoms: _263  and  _265
REMARK  107  A    between atoms: _265  and  _266
REMARK  108  A    between atoms: _265  and  _268
REMARK  109  A    between atoms: _268  and  _269
REMARK  110  A    between atoms: _272  and  _274
REMARK  111  A    between atoms: _274  and  _275
REMARK  112  A    between atoms: _274  and  _277
REMARK  113  A    between atoms: _280  and  _282
REMARK  114  A    between atoms: _282  and  _283
REMARK  115  A    between atoms: _282  and  _285
REMARK  116  A    between atoms: _285  and  _286
REMARK  117  A    between atoms: _291  and  _292
REMARK  118  A    between atoms: _294  and  _296
REMARK  119  A    between atoms: _296  and  _297
REMARK  120  A    between atoms: _296  and  _299
REMARK  121  A    between atoms: _299  and  _300
REMARK  122  A    between atoms: _303  and  _305
REMARK  123  A    between atoms: _305  and  _306
REMARK  124  A    between atoms: _305  and  _308
REMARK  125  A    between atoms: _308  and  _309
REMARK  126  A    between atoms: _309  and  _310
REMARK  127  A    between atoms: _310  and  _311
REMARK  128  A    between atoms: _320  and  _322
REMARK  129  A    between atoms: _322  and  _323
REMARK  130  A    between atoms: _322  and  _325
REMARK  131  A    between atoms: _325  and  _326
REMARK  132  A    between atoms: _329  and  _331
REMARK  133  A    between atoms: _331  and  _332
REMARK  134  A    between atoms: _331  and  _334
REMARK  135  A    between atoms: _337  and  _339
REMARK  136  A    between atoms: _339  and  _340
REMARK  137  A    between atoms: _339  and  _342
REMARK  138  A    between atoms: _342  and  _343
REMARK  139  A    between atoms: _348  and  _350
REMARK  140  A    between atoms: _350  and  _351
REMARK  141  A    between atoms: _350  and  _353
REMARK  142  A    between atoms: _353  and  _354
REMARK  143  A    between atoms: _357  and  _359
REMARK  144  A    between atoms: _359  and  _360
REMARK  145  A    between atoms: _359  and  _362
REMARK  146  A    between atoms: _362  and  _363
REMARK                            x       y       z     vdW  Elec       q    Type
REMARK                         _______ _______ _______ _____ _____    ______ ____
ROOT
ATOM      1  CA  ASP A   1      41.882  35.734 -11.975  0.00  0.00    +0.144 C 
ENDROOT
BRANCH   1   2
ATOM      2  N   ASP A   1      42.351  34.445 -12.471  0.00  0.00    -0.239 NA
ATOM      3  H   ASP A   1      41.839  33.573 -12.226  0.00  0.00    +0.142 HD
ENDBRANCH   1   2
BRANCH   1   4
ATOM      4  C   ASP A   1      41.742  36.739 -13.058  0.00  0.00    +0.225 C 
ATOM      5  O   ASP A   1      42.134  37.883 -12.957  0.00  0.00    -0.287 OA
ENDBRANCH   1   4
BRANCH   1   6
ATOM      6  CB  ASP A   1      42.897  36.296 -10.960  0.00  0.00    +0.139 C 
BRANCH   6   7
ATOM      7  CG  ASP A   1      42.386  37.490 -10.223  0.00  0.00    +0.367 C 
ATOM      8  OD2 ASP A   1      41.245  37.658  -9.908  0.00  0.00    -0.246 OA
ATOM      9  OD1 ASP A   1      43.329  38.339  -9.936  0.00  0.00    -0.246 OA
ENDBRANCH   6   7
ENDBRANCH   1   6
TORSDOF 4
REMARK  Name = ../refined-set-2016/1zdp/1zdp_pocket.pdb
REMARK  146 active torsions:
REMARK  status: ('A' for Active; 'I' for Inactive)
REMARK    1  A    between atoms: _1  and  _3
REMARK    2  A    between atoms: _3  and  _4
REMARK    3  A    between atoms: _3  and  _6
REMARK    4  A    between atoms: _6  and  _7
REMARK    5  A    between atoms: _12  and  _13
REMARK    6  A    between atoms: _15  and  _17
REMARK    7  A    between atoms: _17  and  _18
REMARK    8  A    between atoms: _17  and  _20
REMARK    9  A    between atoms: _20  and  _21
REMARK   10  A    between atoms: _26  and  _28
REMARK   11  A    between atoms: _28  and  _29
REMARK   12  A    between atoms: _28  and  _31
REMARK   13  A    between atoms: _31  and  _32
REMARK   14  A    between atoms: _37  and  _39
REMARK   15  A    between atoms: _39  and  _40
REMARK   16  A    between atoms: _43  and  _45
REMARK   17  A    between atoms: _45  and  _46
REMARK   18  A    between atoms: _45  and  _48
REMARK   19  A    between atoms: _48  and  _49
REMARK   20  A    between atoms: _55  and  _57
REMARK   21  A    between atoms: _57  and  _58
REMARK   22  A    between atoms: _57  and  _60
REMARK   23  A    between atoms: _60  and  _61
REMARK   24  A    between atoms: _71  and  _73
REMARK   25  A    between atoms: _73  and  _74
REMARK   26  A    between atoms: _73  and  _76
REMARK   27  A    between atoms: _79  and  _81
REMARK   28  A    between atoms: _81  and  _82
REMARK   29  A    between atoms: _81  and  _84
REMARK   30  A    between atoms: _84  and  _85
REMARK   31  A    between atoms: _90  and  _91
REMARK   32  A    between atoms: _93  and  _95
REMARK   33  A    between atoms: _95  and  _96
REMARK   34  A    between atoms: _98  and  _100
REMARK   35  A    between atoms: _100  and  _101
REMARK   36  A    between atoms: _100  and  _103
REMARK   37  A    between atoms: _103  and  _104
REMARK   38  A    between atoms: _110  and  _112
REMARK   39  A    between atoms: _112  and  _113
REMARK   40  A    between atoms: _112  and  _115
REMARK   41  A    between atoms: _115  and  _116
REMARK   42  A    between atoms: _119  and  _121
REMARK   43  A    between atoms: _121  and  _122
REMARK   44  A    between atoms: _124  and  _126
REMARK   45  A    between atoms: _126  and  _127
REMARK   46  A    between atoms: _126  and  _129
REMARK   47  A    between atoms: _129  and  _130
REMARK   48  A    between atoms: _133  and  _135
REMARK   49  A    between atoms: _135  and  _136
REMARK   50  A    between atoms: _135  and  _138
REMARK   51  A    between atoms: _141  and  _143
REMARK   52  A    between atoms: _143  and  _144
REMARK   53  A    between atoms: _143  and  _146
REMARK   54  A    between atoms: _149  and  _151
REMARK   55  A    between atoms: _151  and  _152
REMARK   56  A    between atoms: _155  and  _157
REMARK   57  A    between atoms: _157  and  _158
REMARK   58  A    between atoms: _157  and  _160
REMARK   59  A    between atoms: _160  and  _161
REMARK   60  A    between atoms: _165  and  ZN_365
REMARK   61  A    between atoms: _166  and  _168
REMARK   62  A    between atoms: _168  and  _169
REMARK   63  A    between atoms: _168  and  _171
REMARK   64  A    between atoms: _171  and  _172
REMARK   65  A    between atoms: _172  and  _173
REMARK   66  A    between atoms: _176  and  _178
REMARK   67  A    between atoms: _178  and  _179
REMARK   68  A    between atoms: _178  and  _181
REMARK   69  A    between atoms: _181  and  _182
REMARK   70  A    between atoms: _186  and  ZN_365
REMARK   71  A    between atoms: _187  and  _189
REMARK   72  A    between atoms: _189  and  _190
REMARK   73  A    between atoms: _189  and  _192
REMARK   74  A    between atoms: _192  and  _193
REMARK   75  A    between atoms: _198  and  _199
REMARK   76  A    between atoms: _201  and  _203
REMARK   77  A    between atoms: _203  and  _204
REMARK   78  A    between atoms: _203  and  _206
REMARK   79  A    between atoms: _206  and  _207
REMARK   80  A    between atoms: _212  and  _214
REMARK   81  A    between atoms: _214  and  _215
REMARK   82  A    between atoms: _214  and  _217
REMARK   83  A    between atoms: _217  and  _218
REMARK   84  A    between atoms: _218  and  _219
REMARK   85  A    between atoms: _219  and  _220
REMARK   86  A    between atoms: _220  and  ZN_365
REMARK   87  A    between atoms: _222  and  _224
REMARK   88  A    between atoms: _224  and  _225
REMARK   89  A    between atoms: _224  and  _227
REMARK   90  A    between atoms: _227  and  _228
REMARK   91  A    between atoms: _230  and  _232
REMARK   92  A    between atoms: _232  and  _233
REMARK   93  A    between atoms: _232  and  _235
REMARK   94  A    between atoms: _235  and  _236
REMARK   95  A    between atoms: _239  and  _241
REMARK   96  A    between atoms: _241  and  _242
REMARK   97  A    between atoms: _241  and  _244
REMARK   98  A    between atoms: _244  and  _245
REMARK   99  A    between atoms: _248  and  _250
REMARK  100  A    between atoms: _250  and  _251
REMARK  101  A    between atoms: _253  and  _255
REMARK  102  A    between atoms: _255  and  _256
REMARK  103  A    between atoms: _255  and  _258
REMARK  104  A    between atoms: _258  and  _259
REMARK  105  A    between atoms: _259  and  _260
REMARK  106  A    between atoms: _263  and  _265
REMARK  107  A    between atoms: _265  and  _266
REMARK  108  A    between atoms: _265  and  _268
REMARK  109  A    between atoms: _268  and  _269
REMARK  110  A    between atoms: _272  and  _274
REMARK  111  A    between atoms: _274  and  _275
REMARK  112  A    between atoms: _274  and  _277
REMARK  113  A    between atoms: _280  and  _282
REMARK  114  A    between atoms: _282  and  _283
REMARK  115  A    between atoms: _282  and  _285
REMARK  116  A    between atoms: _285  and  _286
REMARK  117  A    between atoms: _291  and  _292
REMARK  118  A    between atoms: _294  and  _296
REMARK  119  A    between atoms: _296  and  _297
REMARK  120  A    between atoms: _296  and  _299
REMARK  121  A    between atoms: _299  and  _300
REMARK  122  A    between atoms: _303  and  _305
REMARK  123  A    between atoms: _305  and  _306
REMARK  124  A    between atoms: _305  and  _308
REMARK  125  A    between atoms: _308  and  _309
REMARK  126  A    between atoms: _309  and  _310
REMARK  127  A    between atoms: _310  and  _311
REMARK  128  A    between atoms: _320  and  _322
REMARK  129  A    between atoms: _322  and  _323
REMARK  130  A    between atoms: _322  and  _325
REMARK  131  A    between atoms: _325  and  _326
REMARK  132  A    between atoms: _329  and  _331
REMARK  133  A    between atoms: _331  and  _332
REMARK  134  A    between atoms: _331  and  _334
REMARK  135  A    between atoms: _337  and  _339
REMARK  136  A    between atoms: _339  and  _340
REMARK  137  A    between atoms: _339  and  _342
REMARK  138  A    between atoms: _342  and  _343
REMARK  139  A    between atoms: _348  and  _350
REMARK  140  A    between atoms: _350  and  _351
REMARK  141  A    between atoms: _350  and  _353
REMARK  142  A    between atoms: _353  and  _354
REMARK  143  A    between atoms: _357  and  _359
REMARK  144  A    between atoms: _359  and  _360
REMARK  145  A    between atoms: _359  and  _362
REMARK  146  A    between atoms: _362  and  _363
REMARK                            x       y       z     vdW  Elec       q    Type
REMARK                         _______ _______ _______ _____ _____    ______ ____
ROOT
ATOM      1  CA  HIS A   2      43.385  41.393  -8.415  0.00  0.00    +0.155 C 
ENDROOT
BRANCH   1   3
ATOM      2  C   VAL A   1      43.221  42.020 -10.723  0.00  0.00    +0.238 C 
ATOM      3  N   HIS A   2      43.138  41.065  -9.795  0.00  0.00    -0.297 N 
ATOM      4  H   HIS A   2      42.897  40.091 -10.067  0.00  0.00    +0.150 HD
ATOM      5  O   VAL A   1      43.524  43.204 -10.479  0.00  0.00    -0.274 OA
BRANCH   2   6
ATOM      6  CA  VAL A   1      43.010  41.588 -12.178  0.00  0.00    +0.145 C 
BRANCH   6   7
ATOM      7  CB  VAL A   1      41.571  41.680 -12.736  0.00  0.00    +0.025 C 
ATOM      8  CG2 VAL A   1      40.509  41.289 -11.767  0.00  0.00    +0.002 C 
ATOM      9  CG1 VAL A   1      41.419  41.370 -14.195  0.00  0.00    +0.002 C 
ENDBRANCH   6   7
BRANCH   6  10
ATOM     10  N   VAL A   1      43.623  40.290 -12.468  0.00  0.00    -0.238 NA
ATOM     11  H   VAL A   1      43.019  39.509 -12.795  0.00  0.00    +0.142 HD
ENDBRANCH   6  10
ENDBRANCH   2   6
ENDBRANCH   1   3
BRANCH   1  12
ATOM     12  C   HIS A   2      44.893  41.215  -8.042  0.00  0.00    +0.241 C 
ATOM     13  O   HIS A   2      45.310  41.463  -6.903  0.00  0.00    -0.273 OA
ATOM     14  N   ILE A   3      45.665  40.758  -9.002  0.00  0.00    -0.298 N 
ATOM     15  H   ILE A   3      45.238  40.555  -9.928  0.00  0.00    +0.150 HD
BRANCH  14  16
ATOM     16  CA  ILE A   3      47.142  40.515  -8.821  0.00  0.00    +0.137 C 
BRANCH  16  17
ATOM     17  C   ILE A   3      47.958  41.696  -9.289  0.00  0.00    +0.227 C 
ATOM     18  O   ILE A   3      48.669  42.298  -8.521  0.00  0.00    -0.286 OA
ENDBRANCH  16  17
BRANCH  16  19
ATOM     19  CB  ILE A   3      47.660  39.214  -9.420  0.00  0.00    +0.026 C 
ATOM     20  CG2 ILE A   3      49.230  39.251  -9.353  0.00  0.00    +0.002 C 
BRANCH  19  21
ATOM     21  CG1 ILE A   3      46.975  37.979  -8.838  0.00  0.00    +0.002 C 
ATOM     22  CD1 ILE A   3      47.233  36.761  -9.716  0.00  0.00    +0.000 C 
ENDBRANCH  19  21
ENDBRANCH  16  19
ENDBRANCH  14  16
ENDBRANCH   1  12
BRANCH   1  23
ATOM     23  CB  HIS A   2      42.667  40.546  -7.350  0.00  0.00    +0.076 C 
BRANCH  23  24
ATOM     24  CG  HIS A   2      41.204  40.572  -7.515  0.00  0.00    +0.082 A 
ATOM     25  CD2 HIS A   2      40.357  41.415  -6.936  0.00  0.00    +0.115 A 
ATOM     26  NE2 HIS A   2      39.127  41.046  -7.437  0.00  0.00    -0.221 NA
ATOM     27  CE1 HIS A   2      39.243  40.012  -8.279  0.00  0.00    +0.199 A 
ATOM     28  ND1 HIS A   2      40.538  39.697  -8.364  0.00  0.00    -0.227 NA
ENDBRANCH  23  24
ENDBRANCH   1  23
TORSDOF 11
REMARK  Name = ../refined-set-2016/1zdp/1zdp_pocket.pdb
REMARK  146 active torsions:
REMARK  status: ('A' for Active; 'I' for Inactive)
REMARK    1  A    between atoms: _1  and  _3
REMARK    2  A    between atoms: _3  and  _4
REMARK    3  A    between atoms: _3  and  _6
REMARK    4  A    between atoms: _6  and  _7
REMARK    5  A    between atoms: _12  and  _13
REMARK    6  A    between atoms: _15  and  _17
REMARK    7  A    between atoms: _17  and  _18
REMARK    8  A    between atoms: _17  and  _20
REMARK    9  A    between atoms: _20  and  _21
REMARK   10  A    between atoms: _26  and  _28
REMARK   11  A    between atoms: _28  and  _29
REMARK   12  A    between atoms: _28  and  _31
REMARK   13  A    between atoms: _31  and  _32
REMARK   14  A    between atoms: _37  and  _39
REMARK   15  A    between atoms: _39  and  _40
REMARK   16  A    between atoms: _43  and  _45
REMARK   17  A    between atoms: _45  and  _46
REMARK   18  A    between atoms: _45  and  _48
REMARK   19  A    between atoms: _48  and  _49
REMARK   20  A    between atoms: _55  and  _57
REMARK   21  A    between atoms: _57  and  _58
REMARK   22  A    between atoms: _57  and  _60
REMARK   23  A    between atoms: _60  and  _61
REMARK   24  A    between atoms: _71  and  _73
REMARK   25  A    between atoms: _73  and  _74
REMARK   26  A    between atoms: _73  and  _76
REMARK   27  A    between atoms: _79  and  _81
REMARK   28  A    between atoms: _81  and  _82
REMARK   29  A    between atoms: _81  and  _84
REMARK   30  A    between atoms: _84  and  _85
REMARK   31  A    between atoms: _90  and  _91
REMARK   32  A    between atoms: _93  and  _95
REMARK   33  A    between atoms: _95  and  _96
REMARK   34  A    between atoms: _98  and  _100
REMARK   35  A    between atoms: _100  and  _101
REMARK   36  A    between atoms: _100  and  _103
REMARK   37  A    between atoms: _103  and  _104
REMARK   38  A    between atoms: _110  and  _112
REMARK   39  A    between atoms: _112  and  _113
REMARK   40  A    between atoms: _112  and  _115
REMARK   41  A    between atoms: _115  and  _116
REMARK   42  A    between atoms: _119  and  _121
REMARK   43  A    between atoms: _121  and  _122
REMARK   44  A    between atoms: _124  and  _126
REMARK   45  A    between atoms: _126  and  _127
REMARK   46  A    between atoms: _126  and  _129
REMARK   47  A    between atoms: _129  and  _130
REMARK   48  A    between atoms: _133  and  _135
REMARK   49  A    between atoms: _135  and  _136
REMARK   50  A    between atoms: _135  and  _138
REMARK   51  A    between atoms: _141  and  _143
REMARK   52  A    between atoms: _143  and  _144
REMARK   53  A    between atoms: _143  and  _146
REMARK   54  A    between atoms: _149  and  _151
REMARK   55  A    between atoms: _151  and  _152
REMARK   56  A    between atoms: _155  and  _157
REMARK   57  A    between atoms: _157  and  _158
REMARK   58  A    between atoms: _157  and  _160
REMARK   59  A    between atoms: _160  and  _161
REMARK   60  A    between atoms: _165  and  ZN_365
REMARK   61  A    between atoms: _166  and  _168
REMARK   62  A    between atoms: _168  and  _169
REMARK   63  A    between atoms: _168  and  _171
REMARK   64  A    between atoms: _171  and  _172
REMARK   65  A    between atoms: _172  and  _173
REMARK   66  A    between atoms: _176  and  _178
REMARK   67  A    between atoms: _178  and  _179
REMARK   68  A    between atoms: _178  and  _181
REMARK   69  A    between atoms: _181  and  _182
REMARK   70  A    between atoms: _186  and  ZN_365
REMARK   71  A    between atoms: _187  and  _189
REMARK   72  A    between atoms: _189  and  _190
REMARK   73  A    between atoms: _189  and  _192
REMARK   74  A    between atoms: _192  and  _193
REMARK   75  A    between atoms: _198  and  _199
REMARK   76  A    between atoms: _201  and  _203
REMARK   77  A    between atoms: _203  and  _204
REMARK   78  A    between atoms: _203  and  _206
REMARK   79  A    between atoms: _206  and  _207
REMARK   80  A    between atoms: _212  and  _214
REMARK   81  A    between atoms: _214  and  _215
REMARK   82  A    between atoms: _214  and  _217
REMARK   83  A    between atoms: _217  and  _218
REMARK   84  A    between atoms: _218  and  _219
REMARK   85  A    between atoms: _219  and  _220
REMARK   86  A    between atoms: _220  and  ZN_365
REMARK   87  A    between atoms: _222  and  _224
REMARK   88  A    between atoms: _224  and  _225
REMARK   89  A    between atoms: _224  and  _227
REMARK   90  A    between atoms: _227  and  _228
REMARK   91  A    between atoms: _230  and  _232
REMARK   92  A    between atoms: _232  and  _233
REMARK   93  A    between atoms: _232  and  _235
REMARK   94  A    between atoms: _235  and  _236
REMARK   95  A    between atoms: _239  and  _241
REMARK   96  A    between atoms: _241  and  _242
REMARK   97  A    between atoms: _241  and  _244
REMARK   98  A    between atoms: _244  and  _245
REMARK   99  A    between atoms: _248  and  _250
REMARK  100  A    between atoms: _250  and  _251
REMARK  101  A    between atoms: _253  and  _255
REMARK  102  A    between atoms: _255  and  _256
REMARK  103  A    between atoms: _255  and  _258
REMARK  104  A    between atoms: _258  and  _259
REMARK  105  A    between atoms: _259  and  _260
REMARK  106  A    between atoms: _263  and  _265
REMARK  107  A    between atoms: _265  and  _266
REMARK  108  A    between atoms: _265  and  _268
REMARK  109  A    between atoms: _268  and  _269
REMARK  110  A    between atoms: _272  and  _274
REMARK  111  A    between atoms: _274  and  _275
REMARK  112  A    between atoms: _274  and  _277
REMARK  113  A    between atoms: _280  and  _282
REMARK  114  A    between atoms: _282  and  _283
REMARK  115  A    between atoms: _282  and  _285
REMARK  116  A    between atoms: _285  and  _286
REMARK  117  A    between atoms: _291  and  _292
REMARK  118  A    between atoms: _294  and  _296
REMARK  119  A    between atoms: _296  and  _297
REMARK  120  A    between atoms: _296  and  _299
REMARK  121  A    between atoms: _299  and  _300
REMARK  122  A    between atoms: _303  and  _305
REMARK  123  A    between atoms: _305  and  _306
REMARK  124  A    between atoms: _305  and  _308
REMARK  125  A    between atoms: _308  and  _309
REMARK  126  A    between atoms: _309  and  _310
REMARK  127  A    between atoms: _310  and  _311
REMARK  128  A    between atoms: _320  and  _322
REMARK  129  A    between atoms: _322  and  _323
REMARK  130  A    between atoms: _322  and  _325
REMARK  131  A    between atoms: _325  and  _326
REMARK  132  A    between atoms: _329  and  _331
REMARK  133  A    between atoms: _331  and  _332
REMARK  134  A    between atoms: _331  and  _334
REMARK  135  A    between atoms: _337  and  _339
REMARK  136  A    between atoms: _339  and  _340
REMARK  137  A    between atoms: _339  and  _342
REMARK  138  A    between atoms: _342  and  _343
REMARK  139  A    between atoms: _348  and  _350
REMARK  140  A    between atoms: _350  and  _351
REMARK  141  A    between atoms: _350  and  _353
REMARK  142  A    between atoms: _353  and  _354
REMARK  143  A    between atoms: _357  and  _359
REMARK  144  A    between atoms: _359  and  _360
REMARK  145  A    between atoms: _359  and  _362
REMARK  146  A    between atoms: _362  and  _363
REMARK                            x       y       z     vdW  Elec       q    Type
REMARK                         _______ _______ _______ _____ _____    ______ ____
ROOT
ATOM      1  CA  SER A   1      46.435  45.841  -9.403  0.00  0.00    +0.163 C 
ENDROOT
BRANCH   1   2
ATOM      2  N   SER A   1      46.966  44.598  -9.920  0.00  0.00    -0.237 NA
ATOM      3  H   SER A   1      46.495  43.701  -9.683  0.00  0.00    +0.142 HD
ENDBRANCH   1   2
BRANCH   1   4
ATOM      4  C   SER A   1      47.520  46.403  -8.439  0.00  0.00    +0.227 C 
ATOM      5  O   SER A   1      47.626  47.629  -8.159  0.00  0.00    -0.287 OA
ENDBRANCH   1   4
BRANCH   1   6
ATOM      6  CB  SER A   1      45.111  45.664  -8.668  0.00  0.00    +0.162 C 
BRANCH   6   7
ATOM      7  OG  SER A   1      45.205  44.654  -7.694  0.00  0.00    -0.380 OA
ATOM      8  H   SER A   1      44.334  44.560  -7.233  0.00  0.00    +0.211 HD
ENDBRANCH   6   7
ENDBRANCH   1   6
TORSDOF 4
REMARK  Name = ../refined-set-2016/1zdp/1zdp_pocket.pdb
REMARK  146 active torsions:
REMARK  status: ('A' for Active; 'I' for Inactive)
REMARK    1  A    between atoms: _1  and  _3
REMARK    2  A    between atoms: _3  and  _4
REMARK    3  A    between atoms: _3  and  _6
REMARK    4  A    between atoms: _6  and  _7
REMARK    5  A    between atoms: _12  and  _13
REMARK    6  A    between atoms: _15  and  _17
REMARK    7  A    between atoms: _17  and  _18
REMARK    8  A    between atoms: _17  and  _20
REMARK    9  A    between atoms: _20  and  _21
REMARK   10  A    between atoms: _26  and  _28
REMARK   11  A    between atoms: _28  and  _29
REMARK   12  A    between atoms: _28  and  _31
REMARK   13  A    between atoms: _31  and  _32
REMARK   14  A    between atoms: _37  and  _39
REMARK   15  A    between atoms: _39  and  _40
REMARK   16  A    between atoms: _43  and  _45
REMARK   17  A    between atoms: _45  and  _46
REMARK   18  A    between atoms: _45  and  _48
REMARK   19  A    between atoms: _48  and  _49
REMARK   20  A    between atoms: _55  and  _57
REMARK   21  A    between atoms: _57  and  _58
REMARK   22  A    between atoms: _57  and  _60
REMARK   23  A    between atoms: _60  and  _61
REMARK   24  A    between atoms: _71  and  _73
REMARK   25  A    between atoms: _73  and  _74
REMARK   26  A    between atoms: _73  and  _76
REMARK   27  A    between atoms: _79  and  _81
REMARK   28  A    between atoms: _81  and  _82
REMARK   29  A    between atoms: _81  and  _84
REMARK   30  A    between atoms: _84  and  _85
REMARK   31  A    between atoms: _90  and  _91
REMARK   32  A    between atoms: _93  and  _95
REMARK   33  A    between atoms: _95  and  _96
REMARK   34  A    between atoms: _98  and  _100
REMARK   35  A    between atoms: _100  and  _101
REMARK   36  A    between atoms: _100  and  _103
REMARK   37  A    between atoms: _103  and  _104
REMARK   38  A    between atoms: _110  and  _112
REMARK   39  A    between atoms: _112  and  _113
REMARK   40  A    between atoms: _112  and  _115
REMARK   41  A    between atoms: _115  and  _116
REMARK   42  A    between atoms: _119  and  _121
REMARK   43  A    between atoms: _121  and  _122
REMARK   44  A    between atoms: _124  and  _126
REMARK   45  A    between atoms: _126  and  _127
REMARK   46  A    between atoms: _126  and  _129
REMARK   47  A    between atoms: _129  and  _130
REMARK   48  A    between atoms: _133  and  _135
REMARK   49  A    between atoms: _135  and  _136
REMARK   50  A    between atoms: _135  and  _138
REMARK   51  A    between atoms: _141  and  _143
REMARK   52  A    between atoms: _143  and  _144
REMARK   53  A    between atoms: _143  and  _146
REMARK   54  A    between atoms: _149  and  _151
REMARK   55  A    between atoms: _151  and  _152
REMARK   56  A    between atoms: _155  and  _157
REMARK   57  A    between atoms: _157  and  _158
REMARK   58  A    between atoms: _157  and  _160
REMARK   59  A    between atoms: _160  and  _161
REMARK   60  A    between atoms: _165  and  ZN_365
REMARK   61  A    between atoms: _166  and  _168
REMARK   62  A    between atoms: _168  and  _169
REMARK   63  A    between atoms: _168  and  _171
REMARK   64  A    between atoms: _171  and  _172
REMARK   65  A    between atoms: _172  and  _173
REMARK   66  A    between atoms: _176  and  _178
REMARK   67  A    between atoms: _178  and  _179
REMARK   68  A    between atoms: _178  and  _181
REMARK   69  A    between atoms: _181  and  _182
REMARK   70  A    between atoms: _186  and  ZN_365
REMARK   71  A    between atoms: _187  and  _189
REMARK   72  A    between atoms: _189  and  _190
REMARK   73  A    between atoms: _189  and  _192
REMARK   74  A    between atoms: _192  and  _193
REMARK   75  A    between atoms: _198  and  _199
REMARK   76  A    between atoms: _201  and  _203
REMARK   77  A    between atoms: _203  and  _204
REMARK   78  A    between atoms: _203  and  _206
REMARK   79  A    between atoms: _206  and  _207
REMARK   80  A    between atoms: _212  and  _214
REMARK   81  A    between atoms: _214  and  _215
REMARK   82  A    between atoms: _214  and  _217
REMARK   83  A    between atoms: _217  and  _218
REMARK   84  A    between atoms: _218  and  _219
REMARK   85  A    between atoms: _219  and  _220
REMARK   86  A    between atoms: _220  and  ZN_365
REMARK   87  A    between atoms: _222  and  _224
REMARK   88  A    between atoms: _224  and  _225
REMARK   89  A    between atoms: _224  and  _227
REMARK   90  A    between atoms: _227  and  _228
REMARK   91  A    between atoms: _230  and  _232
REMARK   92  A    between atoms: _232  and  _233
REMARK   93  A    between atoms: _232  and  _235
REMARK   94  A    between atoms: _235  and  _236
REMARK   95  A    between atoms: _239  and  _241
REMARK   96  A    between atoms: _241  and  _242
REMARK   97  A    between atoms: _241  and  _244
REMARK   98  A    between atoms: _244  and  _245
REMARK   99  A    between atoms: _248  and  _250
REMARK  100  A    between atoms: _250  and  _251
REMARK  101  A    between atoms: _253  and  _255
REMARK  102  A    between atoms: _255  and  _256
REMARK  103  A    between atoms: _255  and  _258
REMARK  104  A    between atoms: _258  and  _259
REMARK  105  A    between atoms: _259  and  _260
REMARK  106  A    between atoms: _263  and  _265
REMARK  107  A    between atoms: _265  and  _266
REMARK  108  A    between atoms: _265  and  _268
REMARK  109  A    between atoms: _268  and  _269
REMARK  110  A    between atoms: _272  and  _274
REMARK  111  A    between atoms: _274  and  _275
REMARK  112  A    between atoms: _274  and  _277
REMARK  113  A    between atoms: _280  and  _282
REMARK  114  A    between atoms: _282  and  _283
REMARK  115  A    between atoms: _282  and  _285
REMARK  116  A    between atoms: _285  and  _286
REMARK  117  A    between atoms: _291  and  _292
REMARK  118  A    between atoms: _294  and  _296
REMARK  119  A    between atoms: _296  and  _297
REMARK  120  A    between atoms: _296  and  _299
REMARK  121  A    between atoms: _299  and  _300
REMARK  122  A    between atoms: _303  and  _305
REMARK  123  A    between atoms: _305  and  _306
REMARK  124  A    between atoms: _305  and  _308
REMARK  125  A    between atoms: _308  and  _309
REMARK  126  A    between atoms: _309  and  _310
REMARK  127  A    between atoms: _310  and  _311
REMARK  128  A    between atoms: _320  and  _322
REMARK  129  A    between atoms: _322  and  _323
REMARK  130  A    between atoms: _322  and  _325
REMARK  131  A    between atoms: _325  and  _326
REMARK  132  A    between atoms: _329  and  _331
REMARK  133  A    between atoms: _331  and  _332
REMARK  134  A    between atoms: _331  and  _334
REMARK  135  A    between atoms: _337  and  _339
REMARK  136  A    between atoms: _339  and  _340
REMARK  137  A    between atoms: _339  and  _342
REMARK  138  A    between atoms: _342  and  _343
REMARK  139  A    between atoms: _348  and  _350
REMARK  140  A    between atoms: _350  and  _351
REMARK  141  A    between atoms: _350  and  _353
REMARK  142  A    between atoms: _353  and  _354
REMARK  143  A    between atoms: _357  and  _359
REMARK  144  A    between atoms: _359  and  _360
REMARK  145  A    between atoms: _359  and  _362
REMARK  146  A    between atoms: _362  and  _363
REMARK                            x       y       z     vdW  Elec       q    Type
REMARK                         _______ _______ _______ _____ _____    ______ ____
ROOT
ATOM      1  O   HOH     1      38.558  47.166   6.460  0.00  0.00    +0.000 OA
ENDROOT
TORSDOF 0
REMARK  Name = ../refined-set-2016/1zdp/1zdp_pocket.pdb
REMARK  146 active torsions:
REMARK  status: ('A' for Active; 'I' for Inactive)
REMARK    1  A    between atoms: _1  and  _3
REMARK    2  A    between atoms: _3  and  _4
REMARK    3  A    between atoms: _3  and  _6
REMARK    4  A    between atoms: _6  and  _7
REMARK    5  A    between atoms: _12  and  _13
REMARK    6  A    between atoms: _15  and  _17
REMARK    7  A    between atoms: _17  and  _18
REMARK    8  A    between atoms: _17  and  _20
REMARK    9  A    between atoms: _20  and  _21
REMARK   10  A    between atoms: _26  and  _28
REMARK   11  A    between atoms: _28  and  _29
REMARK   12  A    between atoms: _28  and  _31
REMARK   13  A    between atoms: _31  and  _32
REMARK   14  A    between atoms: _37  and  _39
REMARK   15  A    between atoms: _39  and  _40
REMARK   16  A    between atoms: _43  and  _45
REMARK   17  A    between atoms: _45  and  _46
REMARK   18  A    between atoms: _45  and  _48
REMARK   19  A    between atoms: _48  and  _49
REMARK   20  A    between atoms: _55  and  _57
REMARK   21  A    between atoms: _57  and  _58
REMARK   22  A    between atoms: _57  and  _60
REMARK   23  A    between atoms: _60  and  _61
REMARK   24  A    between atoms: _71  and  _73
REMARK   25  A    between atoms: _73  and  _74
REMARK   26  A    between atoms: _73  and  _76
REMARK   27  A    between atoms: _79  and  _81
REMARK   28  A    between atoms: _81  and  _82
REMARK   29  A    between atoms: _81  and  _84
REMARK   30  A    between atoms: _84  and  _85
REMARK   31  A    between atoms: _90  and  _91
REMARK   32  A    between atoms: _93  and  _95
REMARK   33  A    between atoms: _95  and  _96
REMARK   34  A    between atoms: _98  and  _100
REMARK   35  A    between atoms: _100  and  _101
REMARK   36  A    between atoms: _100  and  _103
REMARK   37  A    between atoms: _103  and  _104
REMARK   38  A    between atoms: _110  and  _112
REMARK   39  A    between atoms: _112  and  _113
REMARK   40  A    between atoms: _112  and  _115
REMARK   41  A    between atoms: _115  and  _116
REMARK   42  A    between atoms: _119  and  _121
REMARK   43  A    between atoms: _121  and  _122
REMARK   44  A    between atoms: _124  and  _126
REMARK   45  A    between atoms: _126  and  _127
REMARK   46  A    between atoms: _126  and  _129
REMARK   47  A    between atoms: _129  and  _130
REMARK   48  A    between atoms: _133  and  _135
REMARK   49  A    between atoms: _135  and  _136
REMARK   50  A    between atoms: _135  and  _138
REMARK   51  A    between atoms: _141  and  _143
REMARK   52  A    between atoms: _143  and  _144
REMARK   53  A    between atoms: _143  and  _146
REMARK   54  A    between atoms: _149  and  _151
REMARK   55  A    between atoms: _151  and  _152
REMARK   56  A    between atoms: _155  and  _157
REMARK   57  A    between atoms: _157  and  _158
REMARK   58  A    between atoms: _157  and  _160
REMARK   59  A    between atoms: _160  and  _161
REMARK   60  A    between atoms: _165  and  ZN_365
REMARK   61  A    between atoms: _166  and  _168
REMARK   62  A    between atoms: _168  and  _169
REMARK   63  A    between atoms: _168  and  _171
REMARK   64  A    between atoms: _171  and  _172
REMARK   65  A    between atoms: _172  and  _173
REMARK   66  A    between atoms: _176  and  _178
REMARK   67  A    between atoms: _178  and  _179
REMARK   68  A    between atoms: _178  and  _181
REMARK   69  A    between atoms: _181  and  _182
REMARK   70  A    between atoms: _186  and  ZN_365
REMARK   71  A    between atoms: _187  and  _189
REMARK   72  A    between atoms: _189  and  _190
REMARK   73  A    between atoms: _189  and  _192
REMARK   74  A    between atoms: _192  and  _193
REMARK   75  A    between atoms: _198  and  _199
REMARK   76  A    between atoms: _201  and  _203
REMARK   77  A    between atoms: _203  and  _204
REMARK   78  A    between atoms: _203  and  _206
REMARK   79  A    between atoms: _206  and  _207
REMARK   80  A    between atoms: _212  and  _214
REMARK   81  A    between atoms: _214  and  _215
REMARK   82  A    between atoms: _214  and  _217
REMARK   83  A    between atoms: _217  and  _218
REMARK   84  A    between atoms: _218  and  _219
REMARK   85  A    between atoms: _219  and  _220
REMARK   86  A    between atoms: _220  and  ZN_365
REMARK   87  A    between atoms: _222  and  _224
REMARK   88  A    between atoms: _224  and  _225
REMARK   89  A    between atoms: _224  and  _227
REMARK   90  A    between atoms: _227  and  _228
REMARK   91  A    between atoms: _230  and  _232
REMARK   92  A    between atoms: _232  and  _233
REMARK   93  A    between atoms: _232  and  _235
REMARK   94  A    between atoms: _235  and  _236
REMARK   95  A    between atoms: _239  and  _241
REMARK   96  A    between atoms: _241  and  _242
REMARK   97  A    between atoms: _241  and  _244
REMARK   98  A    between atoms: _244  and  _245
REMARK   99  A    between atoms: _248  and  _250
REMARK  100  A    between atoms: _250  and  _251
REMARK  101  A    between atoms: _253  and  _255
REMARK  102  A    between atoms: _255  and  _256
REMARK  103  A    between atoms: _255  and  _258
REMARK  104  A    between atoms: _258  and  _259
REMARK  105  A    between atoms: _259  and  _260
REMARK  106  A    between atoms: _263  and  _265
REMARK  107  A    between atoms: _265  and  _266
REMARK  108  A    between atoms: _265  and  _268
REMARK  109  A    between atoms: _268  and  _269
REMARK  110  A    between atoms: _272  and  _274
REMARK  111  A    between atoms: _274  and  _275
REMARK  112  A    between atoms: _274  and  _277
REMARK  113  A    between atoms: _280  and  _282
REMARK  114  A    between atoms: _282  and  _283
REMARK  115  A    between atoms: _282  and  _285
REMARK  116  A    between atoms: _285  and  _286
REMARK  117  A    between atoms: _291  and  _292
REMARK  118  A    between atoms: _294  and  _296
REMARK  119  A    between atoms: _296  and  _297
REMARK  120  A    between atoms: _296  and  _299
REMARK  121  A    between atoms: _299  and  _300
REMARK  122  A    between atoms: _303  and  _305
REMARK  123  A    between atoms: _305  and  _306
REMARK  124  A    between atoms: _305  and  _308
REMARK  125  A    between atoms: _308  and  _309
REMARK  126  A    between atoms: _309  and  _310
REMARK  127  A    between atoms: _310  and  _311
REMARK  128  A    between atoms: _320  and  _322
REMARK  129  A    between atoms: _322  and  _323
REMARK  130  A    between atoms: _322  and  _325
REMARK  131  A    between atoms: _325  and  _326
REMARK  132  A    between atoms: _329  and  _331
REMARK  133  A    between atoms: _331  and  _332
REMARK  134  A    between atoms: _331  and  _334
REMARK  135  A    between atoms: _337  and  _339
REMARK  136  A    between atoms: _339  and  _340
REMARK  137  A    between atoms: _339  and  _342
REMARK  138  A    between atoms: _342  and  _343
REMARK  139  A    between atoms: _348  and  _350
REMARK  140  A    between atoms: _350  and  _351
REMARK  141  A    between atoms: _350  and  _353
REMARK  142  A    between atoms: _353  and  _354
REMARK  143  A    between atoms: _357  and  _359
REMARK  144  A    between atoms: _359  and  _360
REMARK  145  A    between atoms: _359  and  _362
REMARK  146  A    between atoms: _362  and  _363
REMARK                            x       y       z     vdW  Elec       q    Type
REMARK                         _______ _______ _______ _____ _____    ______ ____
ROOT
ATOM      1  O   HOH     1      38.648  37.615 -11.231  0.00  0.00    +0.000 OA
ENDROOT
TORSDOF 0
REMARK  Name = ../refined-set-2016/1zdp/1zdp_pocket.pdb
REMARK  146 active torsions:
REMARK  status: ('A' for Active; 'I' for Inactive)
REMARK    1  A    between atoms: _1  and  _3
REMARK    2  A    between atoms: _3  and  _4
REMARK    3  A    between atoms: _3  and  _6
REMARK    4  A    between atoms: _6  and  _7
REMARK    5  A    between atoms: _12  and  _13
REMARK    6  A    between atoms: _15  and  _17
REMARK    7  A    between atoms: _17  and  _18
REMARK    8  A    between atoms: _17  and  _20
REMARK    9  A    between atoms: _20  and  _21
REMARK   10  A    between atoms: _26  and  _28
REMARK   11  A    between atoms: _28  and  _29
REMARK   12  A    between atoms: _28  and  _31
REMARK   13  A    between atoms: _31  and  _32
REMARK   14  A    between atoms: _37  and  _39
REMARK   15  A    between atoms: _39  and  _40
REMARK   16  A    between atoms: _43  and  _45
REMARK   17  A    between atoms: _45  and  _46
REMARK   18  A    between atoms: _45  and  _48
REMARK   19  A    between atoms: _48  and  _49
REMARK   20  A    between atoms: _55  and  _57
REMARK   21  A    between atoms: _57  and  _58
REMARK   22  A    between atoms: _57  and  _60
REMARK   23  A    between atoms: _60  and  _61
REMARK   24  A    between atoms: _71  and  _73
REMARK   25  A    between atoms: _73  and  _74
REMARK   26  A    between atoms: _73  and  _76
REMARK   27  A    between atoms: _79  and  _81
REMARK   28  A    between atoms: _81  and  _82
REMARK   29  A    between atoms: _81  and  _84
REMARK   30  A    between atoms: _84  and  _85
REMARK   31  A    between atoms: _90  and  _91
REMARK   32  A    between atoms: _93  and  _95
REMARK   33  A    between atoms: _95  and  _96
REMARK   34  A    between atoms: _98  and  _100
REMARK   35  A    between atoms: _100  and  _101
REMARK   36  A    between atoms: _100  and  _103
REMARK   37  A    between atoms: _103  and  _104
REMARK   38  A    between atoms: _110  and  _112
REMARK   39  A    between atoms: _112  and  _113
REMARK   40  A    between atoms: _112  and  _115
REMARK   41  A    between atoms: _115  and  _116
REMARK   42  A    between atoms: _119  and  _121
REMARK   43  A    between atoms: _121  and  _122
REMARK   44  A    between atoms: _124  and  _126
REMARK   45  A    between atoms: _126  and  _127
REMARK   46  A    between atoms: _126  and  _129
REMARK   47  A    between atoms: _129  and  _130
REMARK   48  A    between atoms: _133  and  _135
REMARK   49  A    between atoms: _135  and  _136
REMARK   50  A    between atoms: _135  and  _138
REMARK   51  A    between atoms: _141  and  _143
REMARK   52  A    between atoms: _143  and  _144
REMARK   53  A    between atoms: _143  and  _146
REMARK   54  A    between atoms: _149  and  _151
REMARK   55  A    between atoms: _151  and  _152
REMARK   56  A    between atoms: _155  and  _157
REMARK   57  A    between atoms: _157  and  _158
REMARK   58  A    between atoms: _157  and  _160
REMARK   59  A    between atoms: _160  and  _161
REMARK   60  A    between atoms: _165  and  ZN_365
REMARK   61  A    between atoms: _166  and  _168
REMARK   62  A    between atoms: _168  and  _169
REMARK   63  A    between atoms: _168  and  _171
REMARK   64  A    between atoms: _171  and  _172
REMARK   65  A    between atoms: _172  and  _173
REMARK   66  A    between atoms: _176  and  _178
REMARK   67  A    between atoms: _178  and  _179
REMARK   68  A    between atoms: _178  and  _181
REMARK   69  A    between atoms: _181  and  _182
REMARK   70  A    between atoms: _186  and  ZN_365
REMARK   71  A    between atoms: _187  and  _189
REMARK   72  A    between atoms: _189  and  _190
REMARK   73  A    between atoms: _189  and  _192
REMARK   74  A    between atoms: _192  and  _193
REMARK   75  A    between atoms: _198  and  _199
REMARK   76  A    between atoms: _201  and  _203
REMARK   77  A    between atoms: _203  and  _204
REMARK   78  A    between atoms: _203  and  _206
REMARK   79  A    between atoms: _206  and  _207
REMARK   80  A    between atoms: _212  and  _214
REMARK   81  A    between atoms: _214  and  _215
REMARK   82  A    between atoms: _214  and  _217
REMARK   83  A    between atoms: _217  and  _218
REMARK   84  A    between atoms: _218  and  _219
REMARK   85  A    between atoms: _219  and  _220
REMARK   86  A    between atoms: _220  and  ZN_365
REMARK   87  A    between atoms: _222  and  _224
REMARK   88  A    between atoms: _224  and  _225
REMARK   89  A    between atoms: _224  and  _227
REMARK   90  A    between atoms: _227  and  _228
REMARK   91  A    between atoms: _230  and  _232
REMARK   92  A    between atoms: _232  and  _233
REMARK   93  A    between atoms: _232  and  _235
REMARK   94  A    between atoms: _235  and  _236
REMARK   95  A    between atoms: _239  and  _241
REMARK   96  A    between atoms: _241  and  _242
REMARK   97  A    between atoms: _241  and  _244
REMARK   98  A    between atoms: _244  and  _245
REMARK   99  A    between atoms: _248  and  _250
REMARK  100  A    between atoms: _250  and  _251
REMARK  101  A    between atoms: _253  and  _255
REMARK  102  A    between atoms: _255  and  _256
REMARK  103  A    between atoms: _255  and  _258
REMARK  104  A    between atoms: _258  and  _259
REMARK  105  A    between atoms: _259  and  _260
REMARK  106  A    between atoms: _263  and  _265
REMARK  107  A    between atoms: _265  and  _266
REMARK  108  A    between atoms: _265  and  _268
REMARK  109  A    between atoms: _268  and  _269
REMARK  110  A    between atoms: _272  and  _274
REMARK  111  A    between atoms: _274  and  _275
REMARK  112  A    between atoms: _274  and  _277
REMARK  113  A    between atoms: _280  and  _282
REMARK  114  A    between atoms: _282  and  _283
REMARK  115  A    between atoms: _282  and  _285
REMARK  116  A    between atoms: _285  and  _286
REMARK  117  A    between atoms: _291  and  _292
REMARK  118  A    between atoms: _294  and  _296
REMARK  119  A    between atoms: _296  and  _297
REMARK  120  A    between atoms: _296  and  _299
REMARK  121  A    between atoms: _299  and  _300
REMARK  122  A    between atoms: _303  and  _305
REMARK  123  A    between atoms: _305  and  _306
REMARK  124  A    between atoms: _305  and  _308
REMARK  125  A    between atoms: _308  and  _309
REMARK  126  A    between atoms: _309  and  _310
REMARK  127  A    between atoms: _310  and  _311
REMARK  128  A    between atoms: _320  and  _322
REMARK  129  A    between atoms: _322  and  _323
REMARK  130  A    between atoms: _322  and  _325
REMARK  131  A    between atoms: _325  and  _326
REMARK  132  A    between atoms: _329  and  _331
REMARK  133  A    between atoms: _331  and  _332
REMARK  134  A    between atoms: _331  and  _334
REMARK  135  A    between atoms: _337  and  _339
REMARK  136  A    between atoms: _339  and  _340
REMARK  137  A    between atoms: _339  and  _342
REMARK  138  A    between atoms: _342  and  _343
REMARK  139  A    between atoms: _348  and  _350
REMARK  140  A    between atoms: _350  and  _351
REMARK  141  A    between atoms: _350  and  _353
REMARK  142  A    between atoms: _353  and  _354
REMARK  143  A    between atoms: _357  and  _359
REMARK  144  A    between atoms: _359  and  _360
REMARK  145  A    between atoms: _359  and  _362
REMARK  146  A    between atoms: _362  and  _363
REMARK                            x       y       z     vdW  Elec       q    Type
REMARK                         _______ _______ _______ _____ _____    ______ ____
ROOT
ATOM      1  O   HOH     1      42.911  45.123  -6.529  0.00  0.00    +0.000 OA
ENDROOT
TORSDOF 0
REMARK  Name = ../refined-set-2016/1zdp/1zdp_pocket.pdb
REMARK  146 active torsions:
REMARK  status: ('A' for Active; 'I' for Inactive)
REMARK    1  A    between atoms: _1  and  _3
REMARK    2  A    between atoms: _3  and  _4
REMARK    3  A    between atoms: _3  and  _6
REMARK    4  A    between atoms: _6  and  _7
REMARK    5  A    between atoms: _12  and  _13
REMARK    6  A    between atoms: _15  and  _17
REMARK    7  A    between atoms: _17  and  _18
REMARK    8  A    between atoms: _17  and  _20
REMARK    9  A    between atoms: _20  and  _21
REMARK   10  A    between atoms: _26  and  _28
REMARK   11  A    between atoms: _28  and  _29
REMARK   12  A    between atoms: _28  and  _31
REMARK   13  A    between atoms: _31  and  _32
REMARK   14  A    between atoms: _37  and  _39
REMARK   15  A    between atoms: _39  and  _40
REMARK   16  A    between atoms: _43  and  _45
REMARK   17  A    between atoms: _45  and  _46
REMARK   18  A    between atoms: _45  and  _48
REMARK   19  A    between atoms: _48  and  _49
REMARK   20  A    between atoms: _55  and  _57
REMARK   21  A    between atoms: _57  and  _58
REMARK   22  A    between atoms: _57  and  _60
REMARK   23  A    between atoms: _60  and  _61
REMARK   24  A    between atoms: _71  and  _73
REMARK   25  A    between atoms: _73  and  _74
REMARK   26  A    between atoms: _73  and  _76
REMARK   27  A    between atoms: _79  and  _81
REMARK   28  A    between atoms: _81  and  _82
REMARK   29  A    between atoms: _81  and  _84
REMARK   30  A    between atoms: _84  and  _85
REMARK   31  A    between atoms: _90  and  _91
REMARK   32  A    between atoms: _93  and  _95
REMARK   33  A    between atoms: _95  and  _96
REMARK   34  A    between atoms: _98  and  _100
REMARK   35  A    between atoms: _100  and  _101
REMARK   36  A    between atoms: _100  and  _103
REMARK   37  A    between atoms: _103  and  _104
REMARK   38  A    between atoms: _110  and  _112
REMARK   39  A    between atoms: _112  and  _113
REMARK   40  A    between atoms: _112  and  _115
REMARK   41  A    between atoms: _115  and  _116
REMARK   42  A    between atoms: _119  and  _121
REMARK   43  A    between atoms: _121  and  _122
REMARK   44  A    between atoms: _124  and  _126
REMARK   45  A    between atoms: _126  and  _127
REMARK   46  A    between atoms: _126  and  _129
REMARK   47  A    between atoms: _129  and  _130
REMARK   48  A    between atoms: _133  and  _135
REMARK   49  A    between atoms: _135  and  _136
REMARK   50  A    between atoms: _135  and  _138
REMARK   51  A    between atoms: _141  and  _143
REMARK   52  A    between atoms: _143  and  _144
REMARK   53  A    between atoms: _143  and  _146
REMARK   54  A    between atoms: _149  and  _151
REMARK   55  A    between atoms: _151  and  _152
REMARK   56  A    between atoms: _155  and  _157
REMARK   57  A    between atoms: _157  and  _158
REMARK   58  A    between atoms: _157  and  _160
REMARK   59  A    between atoms: _160  and  _161
REMARK   60  A    between atoms: _165  and  ZN_365
REMARK   61  A    between atoms: _166  and  _168
REMARK   62  A    between atoms: _168  and  _169
REMARK   63  A    between atoms: _168  and  _171
REMARK   64  A    between atoms: _171  and  _172
REMARK   65  A    between atoms: _172  and  _173
REMARK   66  A    between atoms: _176  and  _178
REMARK   67  A    between atoms: _178  and  _179
REMARK   68  A    between atoms: _178  and  _181
REMARK   69  A    between atoms: _181  and  _182
REMARK   70  A    between atoms: _186  and  ZN_365
REMARK   71  A    between atoms: _187  and  _189
REMARK   72  A    between atoms: _189  and  _190
REMARK   73  A    between atoms: _189  and  _192
REMARK   74  A    between atoms: _192  and  _193
REMARK   75  A    between atoms: _198  and  _199
REMARK   76  A    between atoms: _201  and  _203
REMARK   77  A    between atoms: _203  and  _204
REMARK   78  A    between atoms: _203  and  _206
REMARK   79  A    between atoms: _206  and  _207
REMARK   80  A    between atoms: _212  and  _214
REMARK   81  A    between atoms: _214  and  _215
REMARK   82  A    between atoms: _214  and  _217
REMARK   83  A    between atoms: _217  and  _218
REMARK   84  A    between atoms: _218  and  _219
REMARK   85  A    between atoms: _219  and  _220
REMARK   86  A    between atoms: _220  and  ZN_365
REMARK   87  A    between atoms: _222  and  _224
REMARK   88  A    between atoms: _224  and  _225
REMARK   89  A    between atoms: _224  and  _227
REMARK   90  A    between atoms: _227  and  _228
REMARK   91  A    between atoms: _230  and  _232
REMARK   92  A    between atoms: _232  and  _233
REMARK   93  A    between atoms: _232  and  _235
REMARK   94  A    between atoms: _235  and  _236
REMARK   95  A    between atoms: _239  and  _241
REMARK   96  A    between atoms: _241  and  _242
REMARK   97  A    between atoms: _241  and  _244
REMARK   98  A    between atoms: _244  and  _245
REMARK   99  A    between atoms: _248  and  _250
REMARK  100  A    between atoms: _250  and  _251
REMARK  101  A    between atoms: _253  and  _255
REMARK  102  A    between atoms: _255  and  _256
REMARK  103  A    between atoms: _255  and  _258
REMARK  104  A    between atoms: _258  and  _259
REMARK  105  A    between atoms: _259  and  _260
REMARK  106  A    between atoms: _263  and  _265
REMARK  107  A    between atoms: _265  and  _266
REMARK  108  A    between atoms: _265  and  _268
REMARK  109  A    between atoms: _268  and  _269
REMARK  110  A    between atoms: _272  and  _274
REMARK  111  A    between atoms: _274  and  _275
REMARK  112  A    between atoms: _274  and  _277
REMARK  113  A    between atoms: _280  and  _282
REMARK  114  A    between atoms: _282  and  _283
REMARK  115  A    between atoms: _282  and  _285
REMARK  116  A    between atoms: _285  and  _286
REMARK  117  A    between atoms: _291  and  _292
REMARK  118  A    between atoms: _294  and  _296
REMARK  119  A    between atoms: _296  and  _297
REMARK  120  A    between atoms: _296  and  _299
REMARK  121  A    between atoms: _299  and  _300
REMARK  122  A    between atoms: _303  and  _305
REMARK  123  A    between atoms: _305  and  _306
REMARK  124  A    between atoms: _305  and  _308
REMARK  125  A    between atoms: _308  and  _309
REMARK  126  A    between atoms: _309  and  _310
REMARK  127  A    between atoms: _310  and  _311
REMARK  128  A    between atoms: _320  and  _322
REMARK  129  A    between atoms: _322  and  _323
REMARK  130  A    between atoms: _322  and  _325
REMARK  131  A    between atoms: _325  and  _326
REMARK  132  A    between atoms: _329  and  _331
REMARK  133  A    between atoms: _331  and  _332
REMARK  134  A    between atoms: _331  and  _334
REMARK  135  A    between atoms: _337  and  _339
REMARK  136  A    between atoms: _339  and  _340
REMARK  137  A    between atoms: _339  and  _342
REMARK  138  A    between atoms: _342  and  _343
REMARK  139  A    between atoms: _348  and  _350
REMARK  140  A    between atoms: _350  and  _351
REMARK  141  A    between atoms: _350  and  _353
REMARK  142  A    between atoms: _353  and  _354
REMARK  143  A    between atoms: _357  and  _359
REMARK  144  A    between atoms: _359  and  _360
REMARK  145  A    between atoms: _359  and  _362
REMARK  146  A    between atoms: _362  and  _363
REMARK                            x       y       z     vdW  Elec       q    Type
REMARK                         _______ _______ _______ _____ _____    ______ ____
ROOT
ATOM      1  O   HOH     1      43.785  40.163  -3.484  0.00  0.00    +0.000 OA
ENDROOT
TORSDOF 0
REMARK  Name = ../refined-set-2016/1zdp/1zdp_pocket.pdb
REMARK  146 active torsions:
REMARK  status: ('A' for Active; 'I' for Inactive)
REMARK    1  A    between atoms: _1  and  _3
REMARK    2  A    between atoms: _3  and  _4
REMARK    3  A    between atoms: _3  and  _6
REMARK    4  A    between atoms: _6  and  _7
REMARK    5  A    between atoms: _12  and  _13
REMARK    6  A    between atoms: _15  and  _17
REMARK    7  A    between atoms: _17  and  _18
REMARK    8  A    between atoms: _17  and  _20
REMARK    9  A    between atoms: _20  and  _21
REMARK   10  A    between atoms: _26  and  _28
REMARK   11  A    between atoms: _28  and  _29
REMARK   12  A    between atoms: _28  and  _31
REMARK   13  A    between atoms: _31  and  _32
REMARK   14  A    between atoms: _37  and  _39
REMARK   15  A    between atoms: _39  and  _40
REMARK   16  A    between atoms: _43  and  _45
REMARK   17  A    between atoms: _45  and  _46
REMARK   18  A    between atoms: _45  and  _48
REMARK   19  A    between atoms: _48  and  _49
REMARK   20  A    between atoms: _55  and  _57
REMARK   21  A    between atoms: _57  and  _58
REMARK   22  A    between atoms: _57  and  _60
REMARK   23  A    between atoms: _60  and  _61
REMARK   24  A    between atoms: _71  and  _73
REMARK   25  A    between atoms: _73  and  _74
REMARK   26  A    between atoms: _73  and  _76
REMARK   27  A    between atoms: _79  and  _81
REMARK   28  A    between atoms: _81  and  _82
REMARK   29  A    between atoms: _81  and  _84
REMARK   30  A    between atoms: _84  and  _85
REMARK   31  A    between atoms: _90  and  _91
REMARK   32  A    between atoms: _93  and  _95
REMARK   33  A    between atoms: _95  and  _96
REMARK   34  A    between atoms: _98  and  _100
REMARK   35  A    between atoms: _100  and  _101
REMARK   36  A    between atoms: _100  and  _103
REMARK   37  A    between atoms: _103  and  _104
REMARK   38  A    between atoms: _110  and  _112
REMARK   39  A    between atoms: _112  and  _113
REMARK   40  A    between atoms: _112  and  _115
REMARK   41  A    between atoms: _115  and  _116
REMARK   42  A    between atoms: _119  and  _121
REMARK   43  A    between atoms: _121  and  _122
REMARK   44  A    between atoms: _124  and  _126
REMARK   45  A    between atoms: _126  and  _127
REMARK   46  A    between atoms: _126  and  _129
REMARK   47  A    between atoms: _129  and  _130
REMARK   48  A    between atoms: _133  and  _135
REMARK   49  A    between atoms: _135  and  _136
REMARK   50  A    between atoms: _135  and  _138
REMARK   51  A    between atoms: _141  and  _143
REMARK   52  A    between atoms: _143  and  _144
REMARK   53  A    between atoms: _143  and  _146
REMARK   54  A    between atoms: _149  and  _151
REMARK   55  A    between atoms: _151  and  _152
REMARK   56  A    between atoms: _155  and  _157
REMARK   57  A    between atoms: _157  and  _158
REMARK   58  A    between atoms: _157  and  _160
REMARK   59  A    between atoms: _160  and  _161
REMARK   60  A    between atoms: _165  and  ZN_365
REMARK   61  A    between atoms: _166  and  _168
REMARK   62  A    between atoms: _168  and  _169
REMARK   63  A    between atoms: _168  and  _171
REMARK   64  A    between atoms: _171  and  _172
REMARK   65  A    between atoms: _172  and  _173
REMARK   66  A    between atoms: _176  and  _178
REMARK   67  A    between atoms: _178  and  _179
REMARK   68  A    between atoms: _178  and  _181
REMARK   69  A    between atoms: _181  and  _182
REMARK   70  A    between atoms: _186  and  ZN_365
REMARK   71  A    between atoms: _187  and  _189
REMARK   72  A    between atoms: _189  and  _190
REMARK   73  A    between atoms: _189  and  _192
REMARK   74  A    between atoms: _192  and  _193
REMARK   75  A    between atoms: _198  and  _199
REMARK   76  A    between atoms: _201  and  _203
REMARK   77  A    between atoms: _203  and  _204
REMARK   78  A    between atoms: _203  and  _206
REMARK   79  A    between atoms: _206  and  _207
REMARK   80  A    between atoms: _212  and  _214
REMARK   81  A    between atoms: _214  and  _215
REMARK   82  A    between atoms: _214  and  _217
REMARK   83  A    between atoms: _217  and  _218
REMARK   84  A    between atoms: _218  and  _219
REMARK   85  A    between atoms: _219  and  _220
REMARK   86  A    between atoms: _220  and  ZN_365
REMARK   87  A    between atoms: _222  and  _224
REMARK   88  A    between atoms: _224  and  _225
REMARK   89  A    between atoms: _224  and  _227
REMARK   90  A    between atoms: _227  and  _228
REMARK   91  A    between atoms: _230  and  _232
REMARK   92  A    between atoms: _232  and  _233
REMARK   93  A    between atoms: _232  and  _235
REMARK   94  A    between atoms: _235  and  _236
REMARK   95  A    between atoms: _239  and  _241
REMARK   96  A    between atoms: _241  and  _242
REMARK   97  A    between atoms: _241  and  _244
REMARK   98  A    between atoms: _244  and  _245
REMARK   99  A    between atoms: _248  and  _250
REMARK  100  A    between atoms: _250  and  _251
REMARK  101  A    between atoms: _253  and  _255
REMARK  102  A    between atoms: _255  and  _256
REMARK  103  A    between atoms: _255  and  _258
REMARK  104  A    between atoms: _258  and  _259
REMARK  105  A    between atoms: _259  and  _260
REMARK  106  A    between atoms: _263  and  _265
REMARK  107  A    between atoms: _265  and  _266
REMARK  108  A    between atoms: _265  and  _268
REMARK  109  A    between atoms: _268  and  _269
REMARK  110  A    between atoms: _272  and  _274
REMARK  111  A    between atoms: _274  and  _275
REMARK  112  A    between atoms: _274  and  _277
REMARK  113  A    between atoms: _280  and  _282
REMARK  114  A    between atoms: _282  and  _283
REMARK  115  A    between atoms: _282  and  _285
REMARK  116  A    between atoms: _285  and  _286
REMARK  117  A    between atoms: _291  and  _292
REMARK  118  A    between atoms: _294  and  _296
REMARK  119  A    between atoms: _296  and  _297
REMARK  120  A    between atoms: _296  and  _299
REMARK  121  A    between atoms: _299  and  _300
REMARK  122  A    between atoms: _303  and  _305
REMARK  123  A    between atoms: _305  and  _306
REMARK  124  A    between atoms: _305  and  _308
REMARK  125  A    between atoms: _308  and  _309
REMARK  126  A    between atoms: _309  and  _310
REMARK  127  A    between atoms: _310  and  _311
REMARK  128  A    between atoms: _320  and  _322
REMARK  129  A    between atoms: _322  and  _323
REMARK  130  A    between atoms: _322  and  _325
REMARK  131  A    between atoms: _325  and  _326
REMARK  132  A    between atoms: _329  and  _331
REMARK  133  A    between atoms: _331  and  _332
REMARK  134  A    between atoms: _331  and  _334
REMARK  135  A    between atoms: _337  and  _339
REMARK  136  A    between atoms: _339  and  _340
REMARK  137  A    between atoms: _339  and  _342
REMARK  138  A    between atoms: _342  and  _343
REMARK  139  A    between atoms: _348  and  _350
REMARK  140  A    between atoms: _350  and  _351
REMARK  141  A    between atoms: _350  and  _353
REMARK  142  A    between atoms: _353  and  _354
REMARK  143  A    between atoms: _357  and  _359
REMARK  144  A    between atoms: _359  and  _360
REMARK  145  A    between atoms: _359  and  _362
REMARK  146  A    between atoms: _362  and  _363
REMARK                            x       y       z     vdW  Elec       q    Type
REMARK                         _______ _______ _______ _____ _____    ______ ____
ROOT
ATOM      1  O   HOH     1      38.862  36.620  -1.541  0.00  0.00    +0.000 OA
ENDROOT
TORSDOF 0
REMARK  Name = ../refined-set-2016/1zdp/1zdp_pocket.pdb
REMARK  146 active torsions:
REMARK  status: ('A' for Active; 'I' for Inactive)
REMARK    1  A    between atoms: _1  and  _3
REMARK    2  A    between atoms: _3  and  _4
REMARK    3  A    between atoms: _3  and  _6
REMARK    4  A    between atoms: _6  and  _7
REMARK    5  A    between atoms: _12  and  _13
REMARK    6  A    between atoms: _15  and  _17
REMARK    7  A    between atoms: _17  and  _18
REMARK    8  A    between atoms: _17  and  _20
REMARK    9  A    between atoms: _20  and  _21
REMARK   10  A    between atoms: _26  and  _28
REMARK   11  A    between atoms: _28  and  _29
REMARK   12  A    between atoms: _28  and  _31
REMARK   13  A    between atoms: _31  and  _32
REMARK   14  A    between atoms: _37  and  _39
REMARK   15  A    between atoms: _39  and  _40
REMARK   16  A    between atoms: _43  and  _45
REMARK   17  A    between atoms: _45  and  _46
REMARK   18  A    between atoms: _45  and  _48
REMARK   19  A    between atoms: _48  and  _49
REMARK   20  A    between atoms: _55  and  _57
REMARK   21  A    between atoms: _57  and  _58
REMARK   22  A    between atoms: _57  and  _60
REMARK   23  A    between atoms: _60  and  _61
REMARK   24  A    between atoms: _71  and  _73
REMARK   25  A    between atoms: _73  and  _74
REMARK   26  A    between atoms: _73  and  _76
REMARK   27  A    between atoms: _79  and  _81
REMARK   28  A    between atoms: _81  and  _82
REMARK   29  A    between atoms: _81  and  _84
REMARK   30  A    between atoms: _84  and  _85
REMARK   31  A    between atoms: _90  and  _91
REMARK   32  A    between atoms: _93  and  _95
REMARK   33  A    between atoms: _95  and  _96
REMARK   34  A    between atoms: _98  and  _100
REMARK   35  A    between atoms: _100  and  _101
REMARK   36  A    between atoms: _100  and  _103
REMARK   37  A    between atoms: _103  and  _104
REMARK   38  A    between atoms: _110  and  _112
REMARK   39  A    between atoms: _112  and  _113
REMARK   40  A    between atoms: _112  and  _115
REMARK   41  A    between atoms: _115  and  _116
REMARK   42  A    between atoms: _119  and  _121
REMARK   43  A    between atoms: _121  and  _122
REMARK   44  A    between atoms: _124  and  _126
REMARK   45  A    between atoms: _126  and  _127
REMARK   46  A    between atoms: _126  and  _129
REMARK   47  A    between atoms: _129  and  _130
REMARK   48  A    between atoms: _133  and  _135
REMARK   49  A    between atoms: _135  and  _136
REMARK   50  A    between atoms: _135  and  _138
REMARK   51  A    between atoms: _141  and  _143
REMARK   52  A    between atoms: _143  and  _144
REMARK   53  A    between atoms: _143  and  _146
REMARK   54  A    between atoms: _149  and  _151
REMARK   55  A    between atoms: _151  and  _152
REMARK   56  A    between atoms: _155  and  _157
REMARK   57  A    between atoms: _157  and  _158
REMARK   58  A    between atoms: _157  and  _160
REMARK   59  A    between atoms: _160  and  _161
REMARK   60  A    between atoms: _165  and  ZN_365
REMARK   61  A    between atoms: _166  and  _168
REMARK   62  A    between atoms: _168  and  _169
REMARK   63  A    between atoms: _168  and  _171
REMARK   64  A    between atoms: _171  and  _172
REMARK   65  A    between atoms: _172  and  _173
REMARK   66  A    between atoms: _176  and  _178
REMARK   67  A    between atoms: _178  and  _179
REMARK   68  A    between atoms: _178  and  _181
REMARK   69  A    between atoms: _181  and  _182
REMARK   70  A    between atoms: _186  and  ZN_365
REMARK   71  A    between atoms: _187  and  _189
REMARK   72  A    between atoms: _189  and  _190
REMARK   73  A    between atoms: _189  and  _192
REMARK   74  A    between atoms: _192  and  _193
REMARK   75  A    between atoms: _198  and  _199
REMARK   76  A    between atoms: _201  and  _203
REMARK   77  A    between atoms: _203  and  _204
REMARK   78  A    between atoms: _203  and  _206
REMARK   79  A    between atoms: _206  and  _207
REMARK   80  A    between atoms: _212  and  _214
REMARK   81  A    between atoms: _214  and  _215
REMARK   82  A    between atoms: _214  and  _217
REMARK   83  A    between atoms: _217  and  _218
REMARK   84  A    between atoms: _218  and  _219
REMARK   85  A    between atoms: _219  and  _220
REMARK   86  A    between atoms: _220  and  ZN_365
REMARK   87  A    between atoms: _222  and  _224
REMARK   88  A    between atoms: _224  and  _225
REMARK   89  A    between atoms: _224  and  _227
REMARK   90  A    between atoms: _227  and  _228
REMARK   91  A    between atoms: _230  and  _232
REMARK   92  A    between atoms: _232  and  _233
REMARK   93  A    between atoms: _232  and  _235
REMARK   94  A    between atoms: _235  and  _236
REMARK   95  A    between atoms: _239  and  _241
REMARK   96  A    between atoms: _241  and  _242
REMARK   97  A    between atoms: _241  and  _244
REMARK   98  A    between atoms: _244  and  _245
REMARK   99  A    between atoms: _248  and  _250
REMARK  100  A    between atoms: _250  and  _251
REMARK  101  A    between atoms: _253  and  _255
REMARK  102  A    between atoms: _255  and  _256
REMARK  103  A    between atoms: _255  and  _258
REMARK  104  A    between atoms: _258  and  _259
REMARK  105  A    between atoms: _259  and  _260
REMARK  106  A    between atoms: _263  and  _265
REMARK  107  A    between atoms: _265  and  _266
REMARK  108  A    between atoms: _265  and  _268
REMARK  109  A    between atoms: _268  and  _269
REMARK  110  A    between atoms: _272  and  _274
REMARK  111  A    between atoms: _274  and  _275
REMARK  112  A    between atoms: _274  and  _277
REMARK  113  A    between atoms: _280  and  _282
REMARK  114  A    between atoms: _282  and  _283
REMARK  115  A    between atoms: _282  and  _285
REMARK  116  A    between atoms: _285  and  _286
REMARK  117  A    between atoms: _291  and  _292
REMARK  118  A    between atoms: _294  and  _296
REMARK  119  A    between atoms: _296  and  _297
REMARK  120  A    between atoms: _296  and  _299
REMARK  121  A    between atoms: _299  and  _300
REMARK  122  A    between atoms: _303  and  _305
REMARK  123  A    between atoms: _305  and  _306
REMARK  124  A    between atoms: _305  and  _308
REMARK  125  A    between atoms: _308  and  _309
REMARK  126  A    between atoms: _309  and  _310
REMARK  127  A    between atoms: _310  and  _311
REMARK  128  A    between atoms: _320  and  _322
REMARK  129  A    between atoms: _322  and  _323
REMARK  130  A    between atoms: _322  and  _325
REMARK  131  A    between atoms: _325  and  _326
REMARK  132  A    between atoms: _329  and  _331
REMARK  133  A    between atoms: _331  and  _332
REMARK  134  A    between atoms: _331  and  _334
REMARK  135  A    between atoms: _337  and  _339
REMARK  136  A    between atoms: _339  and  _340
REMARK  137  A    between atoms: _339  and  _342
REMARK  138  A    between atoms: _342  and  _343
REMARK  139  A    between atoms: _348  and  _350
REMARK  140  A    between atoms: _350  and  _351
REMARK  141  A    between atoms: _350  and  _353
REMARK  142  A    between atoms: _353  and  _354
REMARK  143  A    between atoms: _357  and  _359
REMARK  144  A    between atoms: _359  and  _360
REMARK  145  A    between atoms: _359  and  _362
REMARK  146  A    between atoms: _362  and  _363
REMARK                            x       y       z     vdW  Elec       q    Type
REMARK                         _______ _______ _______ _____ _____    ______ ____
ROOT
ATOM      1  O   HOH     1      44.612  34.057  -7.868  0.00  0.00    +0.000 OA
ENDROOT
TORSDOF 0
REMARK  Name = ../refined-set-2016/1zdp/1zdp_pocket.pdb
REMARK  146 active torsions:
REMARK  status: ('A' for Active; 'I' for Inactive)
REMARK    1  A    between atoms: _1  and  _3
REMARK    2  A    between atoms: _3  and  _4
REMARK    3  A    between atoms: _3  and  _6
REMARK    4  A    between atoms: _6  and  _7
REMARK    5  A    between atoms: _12  and  _13
REMARK    6  A    between atoms: _15  and  _17
REMARK    7  A    between atoms: _17  and  _18
REMARK    8  A    between atoms: _17  and  _20
REMARK    9  A    between atoms: _20  and  _21
REMARK   10  A    between atoms: _26  and  _28
REMARK   11  A    between atoms: _28  and  _29
REMARK   12  A    between atoms: _28  and  _31
REMARK   13  A    between atoms: _31  and  _32
REMARK   14  A    between atoms: _37  and  _39
REMARK   15  A    between atoms: _39  and  _40
REMARK   16  A    between atoms: _43  and  _45
REMARK   17  A    between atoms: _45  and  _46
REMARK   18  A    between atoms: _45  and  _48
REMARK   19  A    between atoms: _48  and  _49
REMARK   20  A    between atoms: _55  and  _57
REMARK   21  A    between atoms: _57  and  _58
REMARK   22  A    between atoms: _57  and  _60
REMARK   23  A    between atoms: _60  and  _61
REMARK   24  A    between atoms: _71  and  _73
REMARK   25  A    between atoms: _73  and  _74
REMARK   26  A    between atoms: _73  and  _76
REMARK   27  A    between atoms: _79  and  _81
REMARK   28  A    between atoms: _81  and  _82
REMARK   29  A    between atoms: _81  and  _84
REMARK   30  A    between atoms: _84  and  _85
REMARK   31  A    between atoms: _90  and  _91
REMARK   32  A    between atoms: _93  and  _95
REMARK   33  A    between atoms: _95  and  _96
REMARK   34  A    between atoms: _98  and  _100
REMARK   35  A    between atoms: _100  and  _101
REMARK   36  A    between atoms: _100  and  _103
REMARK   37  A    between atoms: _103  and  _104
REMARK   38  A    between atoms: _110  and  _112
REMARK   39  A    between atoms: _112  and  _113
REMARK   40  A    between atoms: _112  and  _115
REMARK   41  A    between atoms: _115  and  _116
REMARK   42  A    between atoms: _119  and  _121
REMARK   43  A    between atoms: _121  and  _122
REMARK   44  A    between atoms: _124  and  _126
REMARK   45  A    between atoms: _126  and  _127
REMARK   46  A    between atoms: _126  and  _129
REMARK   47  A    between atoms: _129  and  _130
REMARK   48  A    between atoms: _133  and  _135
REMARK   49  A    between atoms: _135  and  _136
REMARK   50  A    between atoms: _135  and  _138
REMARK   51  A    between atoms: _141  and  _143
REMARK   52  A    between atoms: _143  and  _144
REMARK   53  A    between atoms: _143  and  _146
REMARK   54  A    between atoms: _149  and  _151
REMARK   55  A    between atoms: _151  and  _152
REMARK   56  A    between atoms: _155  and  _157
REMARK   57  A    between atoms: _157  and  _158
REMARK   58  A    between atoms: _157  and  _160
REMARK   59  A    between atoms: _160  and  _161
REMARK   60  A    between atoms: _165  and  ZN_365
REMARK   61  A    between atoms: _166  and  _168
REMARK   62  A    between atoms: _168  and  _169
REMARK   63  A    between atoms: _168  and  _171
REMARK   64  A    between atoms: _171  and  _172
REMARK   65  A    between atoms: _172  and  _173
REMARK   66  A    between atoms: _176  and  _178
REMARK   67  A    between atoms: _178  and  _179
REMARK   68  A    between atoms: _178  and  _181
REMARK   69  A    between atoms: _181  and  _182
REMARK   70  A    between atoms: _186  and  ZN_365
REMARK   71  A    between atoms: _187  and  _189
REMARK   72  A    between atoms: _189  and  _190
REMARK   73  A    between atoms: _189  and  _192
REMARK   74  A    between atoms: _192  and  _193
REMARK   75  A    between atoms: _198  and  _199
REMARK   76  A    between atoms: _201  and  _203
REMARK   77  A    between atoms: _203  and  _204
REMARK   78  A    between atoms: _203  and  _206
REMARK   79  A    between atoms: _206  and  _207
REMARK   80  A    between atoms: _212  and  _214
REMARK   81  A    between atoms: _214  and  _215
REMARK   82  A    between atoms: _214  and  _217
REMARK   83  A    between atoms: _217  and  _218
REMARK   84  A    between atoms: _218  and  _219
REMARK   85  A    between atoms: _219  and  _220
REMARK   86  A    between atoms: _220  and  ZN_365
REMARK   87  A    between atoms: _222  and  _224
REMARK   88  A    between atoms: _224  and  _225
REMARK   89  A    between atoms: _224  and  _227
REMARK   90  A    between atoms: _227  and  _228
REMARK   91  A    between atoms: _230  and  _232
REMARK   92  A    between atoms: _232  and  _233
REMARK   93  A    between atoms: _232  and  _235
REMARK   94  A    between atoms: _235  and  _236
REMARK   95  A    between atoms: _239  and  _241
REMARK   96  A    between atoms: _241  and  _242
REMARK   97  A    between atoms: _241  and  _244
REMARK   98  A    between atoms: _244  and  _245
REMARK   99  A    between atoms: _248  and  _250
REMARK  100  A    between atoms: _250  and  _251
REMARK  101  A    between atoms: _253  and  _255
REMARK  102  A    between atoms: _255  and  _256
REMARK  103  A    between atoms: _255  and  _258
REMARK  104  A    between atoms: _258  and  _259
REMARK  105  A    between atoms: _259  and  _260
REMARK  106  A    between atoms: _263  and  _265
REMARK  107  A    between atoms: _265  and  _266
REMARK  108  A    between atoms: _265  and  _268
REMARK  109  A    between atoms: _268  and  _269
REMARK  110  A    between atoms: _272  and  _274
REMARK  111  A    between atoms: _274  and  _275
REMARK  112  A    between atoms: _274  and  _277
REMARK  113  A    between atoms: _280  and  _282
REMARK  114  A    between atoms: _282  and  _283
REMARK  115  A    between atoms: _282  and  _285
REMARK  116  A    between atoms: _285  and  _286
REMARK  117  A    between atoms: _291  and  _292
REMARK  118  A    between atoms: _294  and  _296
REMARK  119  A    between atoms: _296  and  _297
REMARK  120  A    between atoms: _296  and  _299
REMARK  121  A    between atoms: _299  and  _300
REMARK  122  A    between atoms: _303  and  _305
REMARK  123  A    between atoms: _305  and  _306
REMARK  124  A    between atoms: _305  and  _308
REMARK  125  A    between atoms: _308  and  _309
REMARK  126  A    between atoms: _309  and  _310
REMARK  127  A    between atoms: _310  and  _311
REMARK  128  A    between atoms: _320  and  _322
REMARK  129  A    between atoms: _322  and  _323
REMARK  130  A    between atoms: _322  and  _325
REMARK  131  A    between atoms: _325  and  _326
REMARK  132  A    between atoms: _329  and  _331
REMARK  133  A    between atoms: _331  and  _332
REMARK  134  A    between atoms: _331  and  _334
REMARK  135  A    between atoms: _337  and  _339
REMARK  136  A    between atoms: _339  and  _340
REMARK  137  A    between atoms: _339  and  _342
REMARK  138  A    between atoms: _342  and  _343
REMARK  139  A    between atoms: _348  and  _350
REMARK  140  A    between atoms: _350  and  _351
REMARK  141  A    between atoms: _350  and  _353
REMARK  142  A    between atoms: _353  and  _354
REMARK  143  A    between atoms: _357  and  _359
REMARK  144  A    between atoms: _359  and  _360
REMARK  145  A    between atoms: _359  and  _362
REMARK  146  A    between atoms: _362  and  _363
REMARK                            x       y       z     vdW  Elec       q    Type
REMARK                         _______ _______ _______ _____ _____    ______ ____
ROOT
ATOM      1  O   HOH     1      46.612  39.454  -2.072  0.00  0.00    +0.000 OA
ENDROOT
TORSDOF 0
