REMARK  Name = ../refined-set-2016/2cen/2cen_pocket.pdb
REMARK  236 active torsions:
REMARK  status: ('A' for Active; 'I' for Inactive)
REMARK    1  A    between atoms: _1  and  _3
REMARK    2  A    between atoms: _3  and  _4
REMARK    3  A    between atoms: _3  and  _6
REMARK    4  A    between atoms: _6  and  _7
REMARK    5  A    between atoms: _7  and  _8
REMARK    6  A    between atoms: _8  and  _9
REMARK    7  A    between atoms: _18  and  _20
REMARK    8  A    between atoms: _20  and  _21
REMARK    9  A    between atoms: _20  and  _23
REMARK   10  A    between atoms: _23  and  _24
REMARK   11  A    between atoms: _27  and  _29
REMARK   12  A    between atoms: _29  and  _30
REMARK   13  A    between atoms: _29  and  _32
REMARK   14  A    between atoms: _32  and  _33
REMARK   15  A    between atoms: _36  and  _38
REMARK   16  A    between atoms: _38  and  _39
REMARK   17  A    between atoms: _38  and  _41
REMARK   18  A    between atoms: _41  and  _42
REMARK   19  A    between atoms: _45  and  _47
REMARK   20  A    between atoms: _47  and  _48
REMARK   21  A    between atoms: _47  and  _50
REMARK   22  A    between atoms: _50  and  _51
REMARK   23  A    between atoms: _54  and  _56
REMARK   24  A    between atoms: _56  and  _57
REMARK   25  A    between atoms: _56  and  _59
REMARK   26  A    between atoms: _59  and  _60
REMARK   27  A    between atoms: _63  and  _65
REMARK   28  A    between atoms: _65  and  _66
REMARK   29  A    between atoms: _68  and  _70
REMARK   30  A    between atoms: _70  and  _71
REMARK   31  A    between atoms: _74  and  _76
REMARK   32  A    between atoms: _76  and  _77
REMARK   33  A    between atoms: _76  and  _79
REMARK   34  A    between atoms: _79  and  _80
REMARK   35  A    between atoms: _83  and  _85
REMARK   36  A    between atoms: _85  and  _86
REMARK   37  A    between atoms: _85  and  _88
REMARK   38  A    between atoms: _88  and  _89
REMARK   39  A    between atoms: _92  and  _94
REMARK   40  A    between atoms: _94  and  _95
REMARK   41  A    between atoms: _94  and  _97
REMARK   42  A    between atoms: _97  and  _98
REMARK   43  A    between atoms: _101  and  _103
REMARK   44  A    between atoms: _103  and  _104
REMARK   45  A    between atoms: _103  and  _106
REMARK   46  A    between atoms: _109  and  _111
REMARK   47  A    between atoms: _111  and  _112
REMARK   48  A    between atoms: _111  and  _114
REMARK   49  A    between atoms: _114  and  _115
REMARK   50  A    between atoms: _115  and  _116
REMARK   51  A    between atoms: _116  and  _117
REMARK   52  A    between atoms: _117  and  _118
REMARK   53  A    between atoms: _122  and  _124
REMARK   54  A    between atoms: _124  and  _125
REMARK   55  A    between atoms: _124  and  _127
REMARK   56  A    between atoms: _127  and  _128
REMARK   57  A    between atoms: _128  and  _129
REMARK   58  A    between atoms: _131  and  _133
REMARK   59  A    between atoms: _133  and  _134
REMARK   60  A    between atoms: _133  and  _136
REMARK   61  A    between atoms: _136  and  _137
REMARK   62  A    between atoms: _140  and  _142
REMARK   63  A    between atoms: _142  and  _143
REMARK   64  A    between atoms: _145  and  _147
REMARK   65  A    between atoms: _147  and  _148
REMARK   66  A    between atoms: _150  and  _152
REMARK   67  A    between atoms: _152  and  _153
REMARK   68  A    between atoms: _152  and  _155
REMARK   69  A    between atoms: _155  and  _156
REMARK   70  A    between atoms: _159  and  _161
REMARK   71  A    between atoms: _161  and  _162
REMARK   72  A    between atoms: _164  and  _166
REMARK   73  A    between atoms: _166  and  _167
REMARK   74  A    between atoms: _169  and  _171
REMARK   75  A    between atoms: _171  and  _172
REMARK   76  A    between atoms: _171  and  _174
REMARK   77  A    between atoms: _174  and  _175
REMARK   78  A    between atoms: _181  and  _183
REMARK   79  A    between atoms: _183  and  _184
REMARK   80  A    between atoms: _183  and  _186
REMARK   81  A    between atoms: _186  and  _187
REMARK   82  A    between atoms: _190  and  _192
REMARK   83  A    between atoms: _192  and  _193
REMARK   84  A    between atoms: _192  and  _195
REMARK   85  A    between atoms: _198  and  _200
REMARK   86  A    between atoms: _200  and  _201
REMARK   87  A    between atoms: _200  and  _203
REMARK   88  A    between atoms: _203  and  _204
REMARK   89  A    between atoms: _207  and  _209
REMARK   90  A    between atoms: _209  and  _210
REMARK   91  A    between atoms: _209  and  _212
REMARK   92  A    between atoms: _212  and  _213
REMARK   93  A    between atoms: _217  and  _218
REMARK   94  A    between atoms: _223  and  _225
REMARK   95  A    between atoms: _225  and  _226
REMARK   96  A    between atoms: _225  and  _228
REMARK   97  A    between atoms: _231  and  _233
REMARK   98  A    between atoms: _233  and  _234
REMARK   99  A    between atoms: _233  and  _236
REMARK  100  A    between atoms: _236  and  _237
REMARK  101  A    between atoms: _242  and  _244
REMARK  102  A    between atoms: _244  and  _245
REMARK  103  A    between atoms: _244  and  _247
REMARK  104  A    between atoms: _247  and  _248
REMARK  105  A    between atoms: _251  and  _253
REMARK  106  A    between atoms: _253  and  _254
REMARK  107  A    between atoms: _253  and  _256
REMARK  108  A    between atoms: _256  and  _257
REMARK  109  A    between atoms: _260  and  _262
REMARK  110  A    between atoms: _262  and  _263
REMARK  111  A    between atoms: _265  and  _267
REMARK  112  A    between atoms: _267  and  _268
REMARK  113  A    between atoms: _267  and  _270
REMARK  114  A    between atoms: _270  and  _271
REMARK  115  A    between atoms: _271  and  _272
REMARK  116  A    between atoms: _272  and  _273
REMARK  117  A    between atoms: _282  and  _284
REMARK  118  A    between atoms: _284  and  _285
REMARK  119  A    between atoms: _284  and  _287
REMARK  120  A    between atoms: _287  and  _288
REMARK  121  A    between atoms: _288  and  _289
REMARK  122  A    between atoms: _289  and  _290
REMARK  123  A    between atoms: _299  and  _301
REMARK  124  A    between atoms: _301  and  _302
REMARK  125  A    between atoms: _301  and  _304
REMARK  126  A    between atoms: _304  and  _305
REMARK  127  A    between atoms: _308  and  _310
REMARK  128  A    between atoms: _310  and  _311
REMARK  129  A    between atoms: _310  and  _313
REMARK  130  A    between atoms: _313  and  _314
REMARK  131  A    between atoms: _317  and  _319
REMARK  132  A    between atoms: _319  and  _320
REMARK  133  A    between atoms: _319  and  _322
REMARK  134  A    between atoms: _322  and  _323
REMARK  135  A    between atoms: _326  and  _328
REMARK  136  A    between atoms: _328  and  _329
REMARK  137  A    between atoms: _328  and  _331
REMARK  138  A    between atoms: _331  and  _332
REMARK  139  A    between atoms: _335  and  _337
REMARK  140  A    between atoms: _337  and  _338
REMARK  141  A    between atoms: _340  and  _342
REMARK  142  A    between atoms: _342  and  _343
REMARK  143  A    between atoms: _346  and  _348
REMARK  144  A    between atoms: _348  and  _349
REMARK  145  A    between atoms: _348  and  _351
REMARK  146  A    between atoms: _351  and  _352
REMARK  147  A    between atoms: _355  and  _357
REMARK  148  A    between atoms: _357  and  _358
REMARK  149  A    between atoms: _357  and  _360
REMARK  150  A    between atoms: _360  and  _361
REMARK  151  A    between atoms: _364  and  _366
REMARK  152  A    between atoms: _366  and  _367
REMARK  153  A    between atoms: _366  and  _369
REMARK  154  A    between atoms: _369  and  _370
REMARK  155  A    between atoms: _373  and  _375
REMARK  156  A    between atoms: _375  and  _376
REMARK  157  A    between atoms: _375  and  _378
REMARK  158  A    between atoms: _381  and  _383
REMARK  159  A    between atoms: _383  and  _384
REMARK  160  A    between atoms: _383  and  _386
REMARK  161  A    between atoms: _386  and  _387
REMARK  162  A    between atoms: _390  and  _392
REMARK  163  A    between atoms: _392  and  _393
REMARK  164  A    between atoms: _392  and  _395
REMARK  165  A    between atoms: _395  and  _396
REMARK  166  A    between atoms: _396  and  _397
REMARK  167  A    between atoms: _397  and  _398
REMARK  168  A    between atoms: _398  and  _399
REMARK  169  A    between atoms: _403  and  _405
REMARK  170  A    between atoms: _405  and  _406
REMARK  171  A    between atoms: _405  and  _408
REMARK  172  A    between atoms: _408  and  _409
REMARK  173  A    between atoms: _409  and  _410
REMARK  174  A    between atoms: _412  and  _414
REMARK  175  A    between atoms: _414  and  _415
REMARK  176  A    between atoms: _414  and  _417
REMARK  177  A    between atoms: _417  and  _418
REMARK  178  A    between atoms: _421  and  _423
REMARK  179  A    between atoms: _423  and  _424
REMARK  180  A    between atoms: _426  and  _428
REMARK  181  A    between atoms: _428  and  _429
REMARK  182  A    between atoms: _431  and  _433
REMARK  183  A    between atoms: _433  and  _434
REMARK  184  A    between atoms: _433  and  _436
REMARK  185  A    between atoms: _436  and  _437
REMARK  186  A    between atoms: _440  and  _442
REMARK  187  A    between atoms: _442  and  _443
REMARK  188  A    between atoms: _445  and  _447
REMARK  189  A    between atoms: _447  and  _448
REMARK  190  A    between atoms: _450  and  _452
REMARK  191  A    between atoms: _452  and  _453
REMARK  192  A    between atoms: _452  and  _455
REMARK  193  A    between atoms: _455  and  _456
REMARK  194  A    between atoms: _462  and  _464
REMARK  195  A    between atoms: _464  and  _465
REMARK  196  A    between atoms: _464  and  _467
REMARK  197  A    between atoms: _467  and  _468
REMARK  198  A    between atoms: _471  and  _473
REMARK  199  A    between atoms: _473  and  _474
REMARK  200  A    between atoms: _473  and  _476
REMARK  201  A    between atoms: _479  and  _481
REMARK  202  A    between atoms: _481  and  _482
REMARK  203  A    between atoms: _481  and  _484
REMARK  204  A    between atoms: _484  and  _485
REMARK  205  A    between atoms: _488  and  _490
REMARK  206  A    between atoms: _490  and  _491
REMARK  207  A    between atoms: _490  and  _493
REMARK  208  A    between atoms: _493  and  _494
REMARK  209  A    between atoms: _498  and  _499
REMARK  210  A    between atoms: _504  and  _506
REMARK  211  A    between atoms: _506  and  _507
REMARK  212  A    between atoms: _506  and  _509
REMARK  213  A    between atoms: _512  and  _514
REMARK  214  A    between atoms: _514  and  _515
REMARK  215  A    between atoms: _514  and  _517
REMARK  216  A    between atoms: _517  and  _518
REMARK  217  A    between atoms: _523  and  _525
REMARK  218  A    between atoms: _525  and  _526
REMARK  219  A    between atoms: _525  and  _528
REMARK  220  A    between atoms: _528  and  _529
REMARK  221  A    between atoms: _532  and  _534
REMARK  222  A    between atoms: _534  and  _535
REMARK  223  A    between atoms: _534  and  _537
REMARK  224  A    between atoms: _537  and  _538
REMARK  225  A    between atoms: _541  and  _543
REMARK  226  A    between atoms: _543  and  _544
REMARK  227  A    between atoms: _546  and  _548
REMARK  228  A    between atoms: _548  and  _549
REMARK  229  A    between atoms: _548  and  _551
REMARK  230  A    between atoms: _551  and  _552
REMARK  231  A    between atoms: _552  and  _553
REMARK  232  A    between atoms: _553  and  _554
REMARK  233  A    between atoms: _563  and  _565
REMARK  234  A    between atoms: _565  and  _566
REMARK  235  A    between atoms: _565  and  _568
REMARK  236  A    between atoms: _568  and  _569
REMARK                            x       y       z     vdW  Elec       q    Type
REMARK                         _______ _______ _______ _____ _____    ______ ____
ROOT
ATOM      1  NE  ARG A   1      23.607  20.173   7.688  0.00  0.00    -0.265 N 
ATOM      2  CZ  ARG A   1      23.575  19.112   8.489  0.00  0.00    +0.342 C 
ATOM      3  NH2 ARG A   1      23.891  19.234   9.773  0.00  0.00    -0.292 N 
ATOM      4 HH21 ARG A   1      23.865  18.402  10.396  0.00  0.00    +0.255 HD
ATOM      5 HH22 ARG A   1      24.165  20.162  10.155  0.00  0.00    +0.255 HD
ATOM      6  NH1 ARG A   1      23.226  17.928   8.002  0.00  0.00    -0.292 N 
ATOM      7 HH11 ARG A   1      23.200  17.096   8.626  0.00  0.00    +0.255 HD
ATOM      8 HH12 ARG A   1      22.978  17.832   6.996  0.00  0.00    +0.255 HD
ATOM      9  HE  ARG A   1      23.355  20.034   6.689  0.00  0.00    +0.259 HD
ENDROOT
BRANCH   1  10
ATOM     10  CD  ARG A   1      23.972  21.519   8.118  0.00  0.00    +0.174 C 
BRANCH  10  11
ATOM     11  CG  ARG A   1      24.276  22.408   6.928  0.00  0.00    +0.045 C 
BRANCH  11  12
ATOM     12  CB  ARG A   1      24.727  23.784   7.369  0.00  0.00    +0.029 C 
BRANCH  12  13
ATOM     13  CA  ARG A   1      25.375  24.606   6.256  0.00  0.00    +0.133 C 
BRANCH  13  14
ATOM     14  N   ARG A   1      26.623  23.987   5.825  0.00  0.00    -0.239 NA
ATOM     15  H   ARG A   1      26.949  23.107   6.274  0.00  0.00    +0.142 HD
ENDBRANCH  13  14
BRANCH  13  16
ATOM     16  C   ARG A   1      25.710  26.004   6.769  0.00  0.00    +0.224 C 
ATOM     17  O   ARG A   1      26.676  26.186   7.512  0.00  0.00    -0.287 OA
ENDBRANCH  13  16
ENDBRANCH  12  13
ENDBRANCH  11  12
ENDBRANCH  10  11
ENDBRANCH   1  10
TORSDOF 6
REMARK  Name = ../refined-set-2016/2cen/2cen_pocket.pdb
REMARK  236 active torsions:
REMARK  status: ('A' for Active; 'I' for Inactive)
REMARK    1  A    between atoms: _1  and  _3
REMARK    2  A    between atoms: _3  and  _4
REMARK    3  A    between atoms: _3  and  _6
REMARK    4  A    between atoms: _6  and  _7
REMARK    5  A    between atoms: _7  and  _8
REMARK    6  A    between atoms: _8  and  _9
REMARK    7  A    between atoms: _18  and  _20
REMARK    8  A    between atoms: _20  and  _21
REMARK    9  A    between atoms: _20  and  _23
REMARK   10  A    between atoms: _23  and  _24
REMARK   11  A    between atoms: _27  and  _29
REMARK   12  A    between atoms: _29  and  _30
REMARK   13  A    between atoms: _29  and  _32
REMARK   14  A    between atoms: _32  and  _33
REMARK   15  A    between atoms: _36  and  _38
REMARK   16  A    between atoms: _38  and  _39
REMARK   17  A    between atoms: _38  and  _41
REMARK   18  A    between atoms: _41  and  _42
REMARK   19  A    between atoms: _45  and  _47
REMARK   20  A    between atoms: _47  and  _48
REMARK   21  A    between atoms: _47  and  _50
REMARK   22  A    between atoms: _50  and  _51
REMARK   23  A    between atoms: _54  and  _56
REMARK   24  A    between atoms: _56  and  _57
REMARK   25  A    between atoms: _56  and  _59
REMARK   26  A    between atoms: _59  and  _60
REMARK   27  A    between atoms: _63  and  _65
REMARK   28  A    between atoms: _65  and  _66
REMARK   29  A    between atoms: _68  and  _70
REMARK   30  A    between atoms: _70  and  _71
REMARK   31  A    between atoms: _74  and  _76
REMARK   32  A    between atoms: _76  and  _77
REMARK   33  A    between atoms: _76  and  _79
REMARK   34  A    between atoms: _79  and  _80
REMARK   35  A    between atoms: _83  and  _85
REMARK   36  A    between atoms: _85  and  _86
REMARK   37  A    between atoms: _85  and  _88
REMARK   38  A    between atoms: _88  and  _89
REMARK   39  A    between atoms: _92  and  _94
REMARK   40  A    between atoms: _94  and  _95
REMARK   41  A    between atoms: _94  and  _97
REMARK   42  A    between atoms: _97  and  _98
REMARK   43  A    between atoms: _101  and  _103
REMARK   44  A    between atoms: _103  and  _104
REMARK   45  A    between atoms: _103  and  _106
REMARK   46  A    between atoms: _109  and  _111
REMARK   47  A    between atoms: _111  and  _112
REMARK   48  A    between atoms: _111  and  _114
REMARK   49  A    between atoms: _114  and  _115
REMARK   50  A    between atoms: _115  and  _116
REMARK   51  A    between atoms: _116  and  _117
REMARK   52  A    between atoms: _117  and  _118
REMARK   53  A    between atoms: _122  and  _124
REMARK   54  A    between atoms: _124  and  _125
REMARK   55  A    between atoms: _124  and  _127
REMARK   56  A    between atoms: _127  and  _128
REMARK   57  A    between atoms: _128  and  _129
REMARK   58  A    between atoms: _131  and  _133
REMARK   59  A    between atoms: _133  and  _134
REMARK   60  A    between atoms: _133  and  _136
REMARK   61  A    between atoms: _136  and  _137
REMARK   62  A    between atoms: _140  and  _142
REMARK   63  A    between atoms: _142  and  _143
REMARK   64  A    between atoms: _145  and  _147
REMARK   65  A    between atoms: _147  and  _148
REMARK   66  A    between atoms: _150  and  _152
REMARK   67  A    between atoms: _152  and  _153
REMARK   68  A    between atoms: _152  and  _155
REMARK   69  A    between atoms: _155  and  _156
REMARK   70  A    between atoms: _159  and  _161
REMARK   71  A    between atoms: _161  and  _162
REMARK   72  A    between atoms: _164  and  _166
REMARK   73  A    between atoms: _166  and  _167
REMARK   74  A    between atoms: _169  and  _171
REMARK   75  A    between atoms: _171  and  _172
REMARK   76  A    between atoms: _171  and  _174
REMARK   77  A    between atoms: _174  and  _175
REMARK   78  A    between atoms: _181  and  _183
REMARK   79  A    between atoms: _183  and  _184
REMARK   80  A    between atoms: _183  and  _186
REMARK   81  A    between atoms: _186  and  _187
REMARK   82  A    between atoms: _190  and  _192
REMARK   83  A    between atoms: _192  and  _193
REMARK   84  A    between atoms: _192  and  _195
REMARK   85  A    between atoms: _198  and  _200
REMARK   86  A    between atoms: _200  and  _201
REMARK   87  A    between atoms: _200  and  _203
REMARK   88  A    between atoms: _203  and  _204
REMARK   89  A    between atoms: _207  and  _209
REMARK   90  A    between atoms: _209  and  _210
REMARK   91  A    between atoms: _209  and  _212
REMARK   92  A    between atoms: _212  and  _213
REMARK   93  A    between atoms: _217  and  _218
REMARK   94  A    between atoms: _223  and  _225
REMARK   95  A    between atoms: _225  and  _226
REMARK   96  A    between atoms: _225  and  _228
REMARK   97  A    between atoms: _231  and  _233
REMARK   98  A    between atoms: _233  and  _234
REMARK   99  A    between atoms: _233  and  _236
REMARK  100  A    between atoms: _236  and  _237
REMARK  101  A    between atoms: _242  and  _244
REMARK  102  A    between atoms: _244  and  _245
REMARK  103  A    between atoms: _244  and  _247
REMARK  104  A    between atoms: _247  and  _248
REMARK  105  A    between atoms: _251  and  _253
REMARK  106  A    between atoms: _253  and  _254
REMARK  107  A    between atoms: _253  and  _256
REMARK  108  A    between atoms: _256  and  _257
REMARK  109  A    between atoms: _260  and  _262
REMARK  110  A    between atoms: _262  and  _263
REMARK  111  A    between atoms: _265  and  _267
REMARK  112  A    between atoms: _267  and  _268
REMARK  113  A    between atoms: _267  and  _270
REMARK  114  A    between atoms: _270  and  _271
REMARK  115  A    between atoms: _271  and  _272
REMARK  116  A    between atoms: _272  and  _273
REMARK  117  A    between atoms: _282  and  _284
REMARK  118  A    between atoms: _284  and  _285
REMARK  119  A    between atoms: _284  and  _287
REMARK  120  A    between atoms: _287  and  _288
REMARK  121  A    between atoms: _288  and  _289
REMARK  122  A    between atoms: _289  and  _290
REMARK  123  A    between atoms: _299  and  _301
REMARK  124  A    between atoms: _301  and  _302
REMARK  125  A    between atoms: _301  and  _304
REMARK  126  A    between atoms: _304  and  _305
REMARK  127  A    between atoms: _308  and  _310
REMARK  128  A    between atoms: _310  and  _311
REMARK  129  A    between atoms: _310  and  _313
REMARK  130  A    between atoms: _313  and  _314
REMARK  131  A    between atoms: _317  and  _319
REMARK  132  A    between atoms: _319  and  _320
REMARK  133  A    between atoms: _319  and  _322
REMARK  134  A    between atoms: _322  and  _323
REMARK  135  A    between atoms: _326  and  _328
REMARK  136  A    between atoms: _328  and  _329
REMARK  137  A    between atoms: _328  and  _331
REMARK  138  A    between atoms: _331  and  _332
REMARK  139  A    between atoms: _335  and  _337
REMARK  140  A    between atoms: _337  and  _338
REMARK  141  A    between atoms: _340  and  _342
REMARK  142  A    between atoms: _342  and  _343
REMARK  143  A    between atoms: _346  and  _348
REMARK  144  A    between atoms: _348  and  _349
REMARK  145  A    between atoms: _348  and  _351
REMARK  146  A    between atoms: _351  and  _352
REMARK  147  A    between atoms: _355  and  _357
REMARK  148  A    between atoms: _357  and  _358
REMARK  149  A    between atoms: _357  and  _360
REMARK  150  A    between atoms: _360  and  _361
REMARK  151  A    between atoms: _364  and  _366
REMARK  152  A    between atoms: _366  and  _367
REMARK  153  A    between atoms: _366  and  _369
REMARK  154  A    between atoms: _369  and  _370
REMARK  155  A    between atoms: _373  and  _375
REMARK  156  A    between atoms: _375  and  _376
REMARK  157  A    between atoms: _375  and  _378
REMARK  158  A    between atoms: _381  and  _383
REMARK  159  A    between atoms: _383  and  _384
REMARK  160  A    between atoms: _383  and  _386
REMARK  161  A    between atoms: _386  and  _387
REMARK  162  A    between atoms: _390  and  _392
REMARK  163  A    between atoms: _392  and  _393
REMARK  164  A    between atoms: _392  and  _395
REMARK  165  A    between atoms: _395  and  _396
REMARK  166  A    between atoms: _396  and  _397
REMARK  167  A    between atoms: _397  and  _398
REMARK  168  A    between atoms: _398  and  _399
REMARK  169  A    between atoms: _403  and  _405
REMARK  170  A    between atoms: _405  and  _406
REMARK  171  A    between atoms: _405  and  _408
REMARK  172  A    between atoms: _408  and  _409
REMARK  173  A    between atoms: _409  and  _410
REMARK  174  A    between atoms: _412  and  _414
REMARK  175  A    between atoms: _414  and  _415
REMARK  176  A    between atoms: _414  and  _417
REMARK  177  A    between atoms: _417  and  _418
REMARK  178  A    between atoms: _421  and  _423
REMARK  179  A    between atoms: _423  and  _424
REMARK  180  A    between atoms: _426  and  _428
REMARK  181  A    between atoms: _428  and  _429
REMARK  182  A    between atoms: _431  and  _433
REMARK  183  A    between atoms: _433  and  _434
REMARK  184  A    between atoms: _433  and  _436
REMARK  185  A    between atoms: _436  and  _437
REMARK  186  A    between atoms: _440  and  _442
REMARK  187  A    between atoms: _442  and  _443
REMARK  188  A    between atoms: _445  and  _447
REMARK  189  A    between atoms: _447  and  _448
REMARK  190  A    between atoms: _450  and  _452
REMARK  191  A    between atoms: _452  and  _453
REMARK  192  A    between atoms: _452  and  _455
REMARK  193  A    between atoms: _455  and  _456
REMARK  194  A    between atoms: _462  and  _464
REMARK  195  A    between atoms: _464  and  _465
REMARK  196  A    between atoms: _464  and  _467
REMARK  197  A    between atoms: _467  and  _468
REMARK  198  A    between atoms: _471  and  _473
REMARK  199  A    between atoms: _473  and  _474
REMARK  200  A    between atoms: _473  and  _476
REMARK  201  A    between atoms: _479  and  _481
REMARK  202  A    between atoms: _481  and  _482
REMARK  203  A    between atoms: _481  and  _484
REMARK  204  A    between atoms: _484  and  _485
REMARK  205  A    between atoms: _488  and  _490
REMARK  206  A    between atoms: _490  and  _491
REMARK  207  A    between atoms: _490  and  _493
REMARK  208  A    between atoms: _493  and  _494
REMARK  209  A    between atoms: _498  and  _499
REMARK  210  A    between atoms: _504  and  _506
REMARK  211  A    between atoms: _506  and  _507
REMARK  212  A    between atoms: _506  and  _509
REMARK  213  A    between atoms: _512  and  _514
REMARK  214  A    between atoms: _514  and  _515
REMARK  215  A    between atoms: _514  and  _517
REMARK  216  A    between atoms: _517  and  _518
REMARK  217  A    between atoms: _523  and  _525
REMARK  218  A    between atoms: _525  and  _526
REMARK  219  A    between atoms: _525  and  _528
REMARK  220  A    between atoms: _528  and  _529
REMARK  221  A    between atoms: _532  and  _534
REMARK  222  A    between atoms: _534  and  _535
REMARK  223  A    between atoms: _534  and  _537
REMARK  224  A    between atoms: _537  and  _538
REMARK  225  A    between atoms: _541  and  _543
REMARK  226  A    between atoms: _543  and  _544
REMARK  227  A    between atoms: _546  and  _548
REMARK  228  A    between atoms: _548  and  _549
REMARK  229  A    between atoms: _548  and  _551
REMARK  230  A    between atoms: _551  and  _552
REMARK  231  A    between atoms: _552  and  _553
REMARK  232  A    between atoms: _553  and  _554
REMARK  233  A    between atoms: _563  and  _565
REMARK  234  A    between atoms: _565  and  _566
REMARK  235  A    between atoms: _565  and  _568
REMARK  236  A    between atoms: _568  and  _569
REMARK                            x       y       z     vdW  Elec       q    Type
REMARK                         _______ _______ _______ _____ _____    ______ ____
ROOT
ATOM      1  CA  LEU A   1      25.224  28.368  10.589  0.00  0.00    +0.133 C 
ENDROOT
BRANCH   1   2
ATOM      2  N   LEU A   1      25.532  28.207   9.173  0.00  0.00    -0.239 NA
ATOM      3  H   LEU A   1      26.425  27.751   8.897  0.00  0.00    +0.142 HD
ENDBRANCH   1   2
BRANCH   1   4
ATOM      4  C   LEU A   1      25.865  29.631  11.142  0.00  0.00    +0.224 C 
ATOM      5  O   LEU A   1      27.019  29.948  10.837  0.00  0.00    -0.287 OA
ENDBRANCH   1   4
BRANCH   1   6
ATOM      6  CB  LEU A   1      25.714  27.151  11.373  0.00  0.00    +0.025 C 
BRANCH   6   7
ATOM      7  CG  LEU A   1      25.031  25.825  11.039  0.00  0.00    +0.002 C 
ATOM      8  CD2 LEU A   1      25.716  24.692  11.782  0.00  0.00    +0.000 C 
ATOM      9  CD1 LEU A   1      23.559  25.904  11.422  0.00  0.00    +0.000 C 
ENDBRANCH   6   7
ENDBRANCH   1   6
TORSDOF 4
REMARK  Name = ../refined-set-2016/2cen/2cen_pocket.pdb
REMARK  236 active torsions:
REMARK  status: ('A' for Active; 'I' for Inactive)
REMARK    1  A    between atoms: _1  and  _3
REMARK    2  A    between atoms: _3  and  _4
REMARK    3  A    between atoms: _3  and  _6
REMARK    4  A    between atoms: _6  and  _7
REMARK    5  A    between atoms: _7  and  _8
REMARK    6  A    between atoms: _8  and  _9
REMARK    7  A    between atoms: _18  and  _20
REMARK    8  A    between atoms: _20  and  _21
REMARK    9  A    between atoms: _20  and  _23
REMARK   10  A    between atoms: _23  and  _24
REMARK   11  A    between atoms: _27  and  _29
REMARK   12  A    between atoms: _29  and  _30
REMARK   13  A    between atoms: _29  and  _32
REMARK   14  A    between atoms: _32  and  _33
REMARK   15  A    between atoms: _36  and  _38
REMARK   16  A    between atoms: _38  and  _39
REMARK   17  A    between atoms: _38  and  _41
REMARK   18  A    between atoms: _41  and  _42
REMARK   19  A    between atoms: _45  and  _47
REMARK   20  A    between atoms: _47  and  _48
REMARK   21  A    between atoms: _47  and  _50
REMARK   22  A    between atoms: _50  and  _51
REMARK   23  A    between atoms: _54  and  _56
REMARK   24  A    between atoms: _56  and  _57
REMARK   25  A    between atoms: _56  and  _59
REMARK   26  A    between atoms: _59  and  _60
REMARK   27  A    between atoms: _63  and  _65
REMARK   28  A    between atoms: _65  and  _66
REMARK   29  A    between atoms: _68  and  _70
REMARK   30  A    between atoms: _70  and  _71
REMARK   31  A    between atoms: _74  and  _76
REMARK   32  A    between atoms: _76  and  _77
REMARK   33  A    between atoms: _76  and  _79
REMARK   34  A    between atoms: _79  and  _80
REMARK   35  A    between atoms: _83  and  _85
REMARK   36  A    between atoms: _85  and  _86
REMARK   37  A    between atoms: _85  and  _88
REMARK   38  A    between atoms: _88  and  _89
REMARK   39  A    between atoms: _92  and  _94
REMARK   40  A    between atoms: _94  and  _95
REMARK   41  A    between atoms: _94  and  _97
REMARK   42  A    between atoms: _97  and  _98
REMARK   43  A    between atoms: _101  and  _103
REMARK   44  A    between atoms: _103  and  _104
REMARK   45  A    between atoms: _103  and  _106
REMARK   46  A    between atoms: _109  and  _111
REMARK   47  A    between atoms: _111  and  _112
REMARK   48  A    between atoms: _111  and  _114
REMARK   49  A    between atoms: _114  and  _115
REMARK   50  A    between atoms: _115  and  _116
REMARK   51  A    between atoms: _116  and  _117
REMARK   52  A    between atoms: _117  and  _118
REMARK   53  A    between atoms: _122  and  _124
REMARK   54  A    between atoms: _124  and  _125
REMARK   55  A    between atoms: _124  and  _127
REMARK   56  A    between atoms: _127  and  _128
REMARK   57  A    between atoms: _128  and  _129
REMARK   58  A    between atoms: _131  and  _133
REMARK   59  A    between atoms: _133  and  _134
REMARK   60  A    between atoms: _133  and  _136
REMARK   61  A    between atoms: _136  and  _137
REMARK   62  A    between atoms: _140  and  _142
REMARK   63  A    between atoms: _142  and  _143
REMARK   64  A    between atoms: _145  and  _147
REMARK   65  A    between atoms: _147  and  _148
REMARK   66  A    between atoms: _150  and  _152
REMARK   67  A    between atoms: _152  and  _153
REMARK   68  A    between atoms: _152  and  _155
REMARK   69  A    between atoms: _155  and  _156
REMARK   70  A    between atoms: _159  and  _161
REMARK   71  A    between atoms: _161  and  _162
REMARK   72  A    between atoms: _164  and  _166
REMARK   73  A    between atoms: _166  and  _167
REMARK   74  A    between atoms: _169  and  _171
REMARK   75  A    between atoms: _171  and  _172
REMARK   76  A    between atoms: _171  and  _174
REMARK   77  A    between atoms: _174  and  _175
REMARK   78  A    between atoms: _181  and  _183
REMARK   79  A    between atoms: _183  and  _184
REMARK   80  A    between atoms: _183  and  _186
REMARK   81  A    between atoms: _186  and  _187
REMARK   82  A    between atoms: _190  and  _192
REMARK   83  A    between atoms: _192  and  _193
REMARK   84  A    between atoms: _192  and  _195
REMARK   85  A    between atoms: _198  and  _200
REMARK   86  A    between atoms: _200  and  _201
REMARK   87  A    between atoms: _200  and  _203
REMARK   88  A    between atoms: _203  and  _204
REMARK   89  A    between atoms: _207  and  _209
REMARK   90  A    between atoms: _209  and  _210
REMARK   91  A    between atoms: _209  and  _212
REMARK   92  A    between atoms: _212  and  _213
REMARK   93  A    between atoms: _217  and  _218
REMARK   94  A    between atoms: _223  and  _225
REMARK   95  A    between atoms: _225  and  _226
REMARK   96  A    between atoms: _225  and  _228
REMARK   97  A    between atoms: _231  and  _233
REMARK   98  A    between atoms: _233  and  _234
REMARK   99  A    between atoms: _233  and  _236
REMARK  100  A    between atoms: _236  and  _237
REMARK  101  A    between atoms: _242  and  _244
REMARK  102  A    between atoms: _244  and  _245
REMARK  103  A    between atoms: _244  and  _247
REMARK  104  A    between atoms: _247  and  _248
REMARK  105  A    between atoms: _251  and  _253
REMARK  106  A    between atoms: _253  and  _254
REMARK  107  A    between atoms: _253  and  _256
REMARK  108  A    between atoms: _256  and  _257
REMARK  109  A    between atoms: _260  and  _262
REMARK  110  A    between atoms: _262  and  _263
REMARK  111  A    between atoms: _265  and  _267
REMARK  112  A    between atoms: _267  and  _268
REMARK  113  A    between atoms: _267  and  _270
REMARK  114  A    between atoms: _270  and  _271
REMARK  115  A    between atoms: _271  and  _272
REMARK  116  A    between atoms: _272  and  _273
REMARK  117  A    between atoms: _282  and  _284
REMARK  118  A    between atoms: _284  and  _285
REMARK  119  A    between atoms: _284  and  _287
REMARK  120  A    between atoms: _287  and  _288
REMARK  121  A    between atoms: _288  and  _289
REMARK  122  A    between atoms: _289  and  _290
REMARK  123  A    between atoms: _299  and  _301
REMARK  124  A    between atoms: _301  and  _302
REMARK  125  A    between atoms: _301  and  _304
REMARK  126  A    between atoms: _304  and  _305
REMARK  127  A    between atoms: _308  and  _310
REMARK  128  A    between atoms: _310  and  _311
REMARK  129  A    between atoms: _310  and  _313
REMARK  130  A    between atoms: _313  and  _314
REMARK  131  A    between atoms: _317  and  _319
REMARK  132  A    between atoms: _319  and  _320
REMARK  133  A    between atoms: _319  and  _322
REMARK  134  A    between atoms: _322  and  _323
REMARK  135  A    between atoms: _326  and  _328
REMARK  136  A    between atoms: _328  and  _329
REMARK  137  A    between atoms: _328  and  _331
REMARK  138  A    between atoms: _331  and  _332
REMARK  139  A    between atoms: _335  and  _337
REMARK  140  A    between atoms: _337  and  _338
REMARK  141  A    between atoms: _340  and  _342
REMARK  142  A    between atoms: _342  and  _343
REMARK  143  A    between atoms: _346  and  _348
REMARK  144  A    between atoms: _348  and  _349
REMARK  145  A    between atoms: _348  and  _351
REMARK  146  A    between atoms: _351  and  _352
REMARK  147  A    between atoms: _355  and  _357
REMARK  148  A    between atoms: _357  and  _358
REMARK  149  A    between atoms: _357  and  _360
REMARK  150  A    between atoms: _360  and  _361
REMARK  151  A    between atoms: _364  and  _366
REMARK  152  A    between atoms: _366  and  _367
REMARK  153  A    between atoms: _366  and  _369
REMARK  154  A    between atoms: _369  and  _370
REMARK  155  A    between atoms: _373  and  _375
REMARK  156  A    between atoms: _375  and  _376
REMARK  157  A    between atoms: _375  and  _378
REMARK  158  A    between atoms: _381  and  _383
REMARK  159  A    between atoms: _383  and  _384
REMARK  160  A    between atoms: _383  and  _386
REMARK  161  A    between atoms: _386  and  _387
REMARK  162  A    between atoms: _390  and  _392
REMARK  163  A    between atoms: _392  and  _393
REMARK  164  A    between atoms: _392  and  _395
REMARK  165  A    between atoms: _395  and  _396
REMARK  166  A    between atoms: _396  and  _397
REMARK  167  A    between atoms: _397  and  _398
REMARK  168  A    between atoms: _398  and  _399
REMARK  169  A    between atoms: _403  and  _405
REMARK  170  A    between atoms: _405  and  _406
REMARK  171  A    between atoms: _405  and  _408
REMARK  172  A    between atoms: _408  and  _409
REMARK  173  A    between atoms: _409  and  _410
REMARK  174  A    between atoms: _412  and  _414
REMARK  175  A    between atoms: _414  and  _415
REMARK  176  A    between atoms: _414  and  _417
REMARK  177  A    between atoms: _417  and  _418
REMARK  178  A    between atoms: _421  and  _423
REMARK  179  A    between atoms: _423  and  _424
REMARK  180  A    between atoms: _426  and  _428
REMARK  181  A    between atoms: _428  and  _429
REMARK  182  A    between atoms: _431  and  _433
REMARK  183  A    between atoms: _433  and  _434
REMARK  184  A    between atoms: _433  and  _436
REMARK  185  A    between atoms: _436  and  _437
REMARK  186  A    between atoms: _440  and  _442
REMARK  187  A    between atoms: _442  and  _443
REMARK  188  A    between atoms: _445  and  _447
REMARK  189  A    between atoms: _447  and  _448
REMARK  190  A    between atoms: _450  and  _452
REMARK  191  A    between atoms: _452  and  _453
REMARK  192  A    between atoms: _452  and  _455
REMARK  193  A    between atoms: _455  and  _456
REMARK  194  A    between atoms: _462  and  _464
REMARK  195  A    between atoms: _464  and  _465
REMARK  196  A    between atoms: _464  and  _467
REMARK  197  A    between atoms: _467  and  _468
REMARK  198  A    between atoms: _471  and  _473
REMARK  199  A    between atoms: _473  and  _474
REMARK  200  A    between atoms: _473  and  _476
REMARK  201  A    between atoms: _479  and  _481
REMARK  202  A    between atoms: _481  and  _482
REMARK  203  A    between atoms: _481  and  _484
REMARK  204  A    between atoms: _484  and  _485
REMARK  205  A    between atoms: _488  and  _490
REMARK  206  A    between atoms: _490  and  _491
REMARK  207  A    between atoms: _490  and  _493
REMARK  208  A    between atoms: _493  and  _494
REMARK  209  A    between atoms: _498  and  _499
REMARK  210  A    between atoms: _504  and  _506
REMARK  211  A    between atoms: _506  and  _507
REMARK  212  A    between atoms: _506  and  _509
REMARK  213  A    between atoms: _512  and  _514
REMARK  214  A    between atoms: _514  and  _515
REMARK  215  A    between atoms: _514  and  _517
REMARK  216  A    between atoms: _517  and  _518
REMARK  217  A    between atoms: _523  and  _525
REMARK  218  A    between atoms: _525  and  _526
REMARK  219  A    between atoms: _525  and  _528
REMARK  220  A    between atoms: _528  and  _529
REMARK  221  A    between atoms: _532  and  _534
REMARK  222  A    between atoms: _534  and  _535
REMARK  223  A    between atoms: _534  and  _537
REMARK  224  A    between atoms: _537  and  _538
REMARK  225  A    between atoms: _541  and  _543
REMARK  226  A    between atoms: _543  and  _544
REMARK  227  A    between atoms: _546  and  _548
REMARK  228  A    between atoms: _548  and  _549
REMARK  229  A    between atoms: _548  and  _551
REMARK  230  A    between atoms: _551  and  _552
REMARK  231  A    between atoms: _552  and  _553
REMARK  232  A    between atoms: _553  and  _554
REMARK  233  A    between atoms: _563  and  _565
REMARK  234  A    between atoms: _565  and  _566
REMARK  235  A    between atoms: _565  and  _568
REMARK  236  A    between atoms: _568  and  _569
REMARK                            x       y       z     vdW  Elec       q    Type
REMARK                         _______ _______ _______ _____ _____    ______ ____
ROOT
ATOM      1  C   GLY A   5      12.500  27.923   3.457  0.00  0.00    +0.243 C 
ATOM      2  N   ALA A   6      12.713  28.749   4.477  0.00  0.00    -0.297 N 
ATOM      3  H   ALA A   6      13.530  29.392   4.450  0.00  0.00    +0.150 HD
ATOM      4  O   GLY A   5      11.561  27.132   3.426  0.00  0.00    -0.273 OA
ENDROOT
BRANCH   2   5
ATOM      5  CA  ALA A   6      11.823  28.771   5.635  0.00  0.00    +0.149 C 
ATOM      6  CB  ALA A   6      12.637  28.605   6.918  0.00  0.00    +0.031 C 
BRANCH   5   7
ATOM      7  C   ALA A   6      11.041  30.079   5.683  0.00  0.00    +0.241 C 
ATOM      8  N   ASP A   7       9.716  29.982   5.744  0.00  0.00    -0.297 N 
ATOM      9  H   ASP A   7       9.272  29.041   5.747  0.00  0.00    +0.150 HD
ATOM     10  O   ALA A   6      11.630  31.158   5.668  0.00  0.00    -0.273 OA
BRANCH   8  11
ATOM     11  CA  ASP A   7       8.874  31.171   5.807  0.00  0.00    +0.160 C 
BRANCH  11  12
ATOM     12  C   ASP A   7       9.030  31.864   7.157  0.00  0.00    +0.241 C 
ATOM     13  N   ASP A   8       9.147  31.054   8.208  0.00  0.00    -0.297 N 
ATOM     14  H   ASP A   8       9.163  30.027   8.046  0.00  0.00    +0.150 HD
ATOM     15  O   ASP A   7       9.036  33.095   7.237  0.00  0.00    -0.273 OA
BRANCH  13  16
ATOM     16  CA  ASP A   8       9.254  31.546   9.576  0.00  0.00    +0.160 C 
BRANCH  16  17
ATOM     17  C   ASP A   8      10.557  31.175  10.262  0.00  0.00    +0.241 C 
ATOM     18  N   THR A   9      10.752  31.758  11.437  0.00  0.00    -0.295 N 
ATOM     19  H   THR A   9      10.041  32.432  11.786  0.00  0.00    +0.150 HD
ATOM     20  O   ASP A   8      11.351  30.381   9.759  0.00  0.00    -0.273 OA
BRANCH  18  21
ATOM     21  CA  THR A   9      11.920  31.489  12.252  0.00  0.00    +0.176 C 
BRANCH  21  22
ATOM     22  C   THR A   9      11.410  30.604  13.378  0.00  0.00    +0.243 C 
ATOM     23  O   THR A   9      10.445  30.954  14.054  0.00  0.00    -0.273 OA
ATOM     24  N   VAL A  10      12.038  29.450  13.564  0.00  0.00    -0.298 N 
ATOM     25  H   VAL A  10      12.837  29.191  12.951  0.00  0.00    +0.150 HD
BRANCH  24  26
ATOM     26  CA  VAL A  10      11.615  28.547  14.620  0.00  0.00    +0.137 C 
BRANCH  26  27
ATOM     27  CB  VAL A  10      10.844  27.330  14.055  0.00  0.00    +0.026 C 
ATOM     28  CG2 VAL A  10      10.375  26.439  15.197  0.00  0.00    +0.002 C 
ATOM     29  CG1 VAL A  10      11.712  26.552  13.095  0.00  0.00    +0.002 C 
ENDBRANCH  26  27
BRANCH  26  30
ATOM     30  C   VAL A  10      12.820  28.072  15.413  0.00  0.00    +0.227 C 
ATOM     31  O   VAL A  10      13.807  27.592  14.850  0.00  0.00    -0.286 OA
ENDBRANCH  26  30
ENDBRANCH  24  26
ENDBRANCH  21  22
BRANCH  21  32
ATOM     32  CB  THR A   9      12.493  32.796  12.830  0.00  0.00    +0.137 C 
ATOM     33  CG2 THR A   9      13.632  32.519  13.807  0.00  0.00    +0.034 C 
BRANCH  32  34
ATOM     34  OG1 THR A   9      12.983  33.604  11.754  0.00  0.00    -0.382 OA
ATOM     35  HG1 THR A   9      12.240  33.810  11.133  0.00  0.00    +0.210 HD
ENDBRANCH  32  34
ENDBRANCH  21  32
ENDBRANCH  18  21
ENDBRANCH  16  17
BRANCH  16  36
ATOM     36  CB  ASP A   8       8.111  30.982  10.428  0.00  0.00    +0.143 C 
BRANCH  36  37
ATOM     37  CG  ASP A   8       6.770  31.049   9.729  0.00  0.00    +0.367 C 
ATOM     38  OD2 ASP A   8       6.055  30.023   9.716  0.00  0.00    -0.246 OA
ATOM     39  OD1 ASP A   8       6.429  32.128   9.204  0.00  0.00    -0.246 OA
ENDBRANCH  36  37
ENDBRANCH  16  36
ENDBRANCH  13  16
ENDBRANCH  11  12
BRANCH  11  40
ATOM     40  CB  ASP A   7       7.396  30.800   5.643  0.00  0.00    +0.143 C 
BRANCH  40  41
ATOM     41  CG  ASP A   7       7.001  30.524   4.204  0.00  0.00    +0.367 C 
ATOM     42  OD2 ASP A   7       5.798  30.268   3.986  0.00  0.00    -0.246 OA
ATOM     43  OD1 ASP A   7       7.860  30.563   3.296  0.00  0.00    -0.246 OA
ENDBRANCH  40  41
ENDBRANCH  11  40
ENDBRANCH   8  11
ENDBRANCH   5   7
ENDBRANCH   2   5
BRANCH   1  44
ATOM     44  CA  GLY A   5      13.483  27.989   2.304  0.00  0.00    +0.176 C 
BRANCH  44  46
ATOM     45  C   THR A   4      14.661  30.096   2.245  0.00  0.00    +0.243 C 
ATOM     46  N   GLY A   5      14.639  28.816   2.603  0.00  0.00    -0.295 N 
ATOM     47  H   GLY A   5      15.454  28.404   3.100  0.00  0.00    +0.150 HD
ATOM     48  O   THR A   4      13.728  30.650   1.660  0.00  0.00    -0.273 OA
BRANCH  45  49
ATOM     49  CA  THR A   4      15.917  30.877   2.612  0.00  0.00    +0.176 C 
BRANCH  49  52
ATOM     50  C   ASP A   3      16.319  29.978   4.831  0.00  0.00    +0.241 C 
ATOM     51  O   ASP A   3      15.208  30.346   5.225  0.00  0.00    -0.273 OA
ATOM     52  N   THR A   4      16.741  30.166   3.582  0.00  0.00    -0.295 N 
ATOM     53  H   THR A   4      17.671  29.801   3.295  0.00  0.00    +0.150 HD
BRANCH  50  54
ATOM     54  CA  ASP A   3      17.264  29.230   5.768  0.00  0.00    +0.160 C 
BRANCH  54  56
ATOM     55  C   LEU A   2      19.393  30.015   6.651  0.00  0.00    +0.241 C 
ATOM     56  N   ASP A   3      18.065  30.056   6.667  0.00  0.00    -0.297 N 
ATOM     57  H   ASP A   3      17.585  30.691   7.336  0.00  0.00    +0.150 HD
ATOM     58  O   LEU A   2      20.036  29.378   5.816  0.00  0.00    -0.273 OA
BRANCH  55  59
ATOM     59  CA  LEU A   2      20.103  30.828   7.728  0.00  0.00    +0.149 C 
BRANCH  59  62
ATOM     60  C   LEU A   1      19.949  29.125   9.481  0.00  0.00    +0.238 C 
ATOM     61  O   LEU A   1      18.752  29.345   9.649  0.00  0.00    -0.274 OA
ATOM     62  N   LEU A   2      20.691  29.801   8.600  0.00  0.00    -0.297 N 
ATOM     63  H   LEU A   2      21.708  29.596   8.529  0.00  0.00    +0.150 HD
BRANCH  60  64
ATOM     64  CA  LEU A   1      20.654  28.048  10.308  0.00  0.00    +0.145 C 
BRANCH  64  65
ATOM     65  N   LEU A   1      20.471  28.246  11.741  0.00  0.00    -0.238 NA
ATOM     66  H   LEU A   1      19.575  27.948  12.176  0.00  0.00    +0.142 HD
ENDBRANCH  64  65
BRANCH  64  67
ATOM     67  CB  LEU A   1      20.101  26.671   9.938  0.00  0.00    +0.026 C 
BRANCH  67  68
ATOM     68  CG  LEU A   1      20.149  26.196   8.489  0.00  0.00    +0.002 C 
ATOM     69  CD2 LEU A   1      19.297  24.938   8.355  0.00  0.00    +0.000 C 
ATOM     70  CD1 LEU A   1      21.585  25.912   8.079  0.00  0.00    +0.000 C 
ENDBRANCH  67  68
ENDBRANCH  64  67
ENDBRANCH  60  64
ENDBRANCH  59  62
BRANCH  59  71
ATOM     71  CB  LEU A   2      21.198  31.705   7.112  0.00  0.00    +0.029 C 
BRANCH  71  72
ATOM     72  CG  LEU A   2      22.081  32.443   8.126  0.00  0.00    +0.002 C 
ATOM     73  CD2 LEU A   2      21.215  33.265   9.072  0.00  0.00    +0.000 C 
ATOM     74  CD1 LEU A   2      23.064  33.349   7.384  0.00  0.00    +0.000 C 
ENDBRANCH  71  72
ENDBRANCH  59  71
ENDBRANCH  55  59
ENDBRANCH  54  56
BRANCH  54  75
ATOM     75  CB  ASP A   3      16.458  28.265   6.638  0.00  0.00    +0.143 C 
BRANCH  75  76
ATOM     76  CG  ASP A   3      15.918  27.090   5.864  0.00  0.00    +0.367 C 
ATOM     77  OD2 ASP A   3      15.603  26.064   6.505  0.00  0.00    -0.246 OA
ATOM     78  OD1 ASP A   3      15.802  27.193   4.628  0.00  0.00    -0.246 OA
ENDBRANCH  75  76
ENDBRANCH  54  75
ENDBRANCH  50  54
ENDBRANCH  49  52
BRANCH  49  79
ATOM     79  CB  THR A   4      16.704  31.192   1.317  0.00  0.00    +0.137 C 
ATOM     80  CG2 THR A   4      17.894  32.086   1.627  0.00  0.00    +0.034 C 
BRANCH  79  81
ATOM     81  OG1 THR A   4      17.159  29.972   0.717  0.00  0.00    -0.382 OA
ATOM     82  HG1 THR A   4      16.379  29.403   0.497  0.00  0.00    +0.210 HD
ENDBRANCH  79  81
ENDBRANCH  49  79
ENDBRANCH  45  49
ENDBRANCH  44  46
ENDBRANCH   1  44
TORSDOF 35
REMARK  Name = ../refined-set-2016/2cen/2cen_pocket.pdb
REMARK  236 active torsions:
REMARK  status: ('A' for Active; 'I' for Inactive)
REMARK    1  A    between atoms: _1  and  _3
REMARK    2  A    between atoms: _3  and  _4
REMARK    3  A    between atoms: _3  and  _6
REMARK    4  A    between atoms: _6  and  _7
REMARK    5  A    between atoms: _7  and  _8
REMARK    6  A    between atoms: _8  and  _9
REMARK    7  A    between atoms: _18  and  _20
REMARK    8  A    between atoms: _20  and  _21
REMARK    9  A    between atoms: _20  and  _23
REMARK   10  A    between atoms: _23  and  _24
REMARK   11  A    between atoms: _27  and  _29
REMARK   12  A    between atoms: _29  and  _30
REMARK   13  A    between atoms: _29  and  _32
REMARK   14  A    between atoms: _32  and  _33
REMARK   15  A    between atoms: _36  and  _38
REMARK   16  A    between atoms: _38  and  _39
REMARK   17  A    between atoms: _38  and  _41
REMARK   18  A    between atoms: _41  and  _42
REMARK   19  A    between atoms: _45  and  _47
REMARK   20  A    between atoms: _47  and  _48
REMARK   21  A    between atoms: _47  and  _50
REMARK   22  A    between atoms: _50  and  _51
REMARK   23  A    between atoms: _54  and  _56
REMARK   24  A    between atoms: _56  and  _57
REMARK   25  A    between atoms: _56  and  _59
REMARK   26  A    between atoms: _59  and  _60
REMARK   27  A    between atoms: _63  and  _65
REMARK   28  A    between atoms: _65  and  _66
REMARK   29  A    between atoms: _68  and  _70
REMARK   30  A    between atoms: _70  and  _71
REMARK   31  A    between atoms: _74  and  _76
REMARK   32  A    between atoms: _76  and  _77
REMARK   33  A    between atoms: _76  and  _79
REMARK   34  A    between atoms: _79  and  _80
REMARK   35  A    between atoms: _83  and  _85
REMARK   36  A    between atoms: _85  and  _86
REMARK   37  A    between atoms: _85  and  _88
REMARK   38  A    between atoms: _88  and  _89
REMARK   39  A    between atoms: _92  and  _94
REMARK   40  A    between atoms: _94  and  _95
REMARK   41  A    between atoms: _94  and  _97
REMARK   42  A    between atoms: _97  and  _98
REMARK   43  A    between atoms: _101  and  _103
REMARK   44  A    between atoms: _103  and  _104
REMARK   45  A    between atoms: _103  and  _106
REMARK   46  A    between atoms: _109  and  _111
REMARK   47  A    between atoms: _111  and  _112
REMARK   48  A    between atoms: _111  and  _114
REMARK   49  A    between atoms: _114  and  _115
REMARK   50  A    between atoms: _115  and  _116
REMARK   51  A    between atoms: _116  and  _117
REMARK   52  A    between atoms: _117  and  _118
REMARK   53  A    between atoms: _122  and  _124
REMARK   54  A    between atoms: _124  and  _125
REMARK   55  A    between atoms: _124  and  _127
REMARK   56  A    between atoms: _127  and  _128
REMARK   57  A    between atoms: _128  and  _129
REMARK   58  A    between atoms: _131  and  _133
REMARK   59  A    between atoms: _133  and  _134
REMARK   60  A    between atoms: _133  and  _136
REMARK   61  A    between atoms: _136  and  _137
REMARK   62  A    between atoms: _140  and  _142
REMARK   63  A    between atoms: _142  and  _143
REMARK   64  A    between atoms: _145  and  _147
REMARK   65  A    between atoms: _147  and  _148
REMARK   66  A    between atoms: _150  and  _152
REMARK   67  A    between atoms: _152  and  _153
REMARK   68  A    between atoms: _152  and  _155
REMARK   69  A    between atoms: _155  and  _156
REMARK   70  A    between atoms: _159  and  _161
REMARK   71  A    between atoms: _161  and  _162
REMARK   72  A    between atoms: _164  and  _166
REMARK   73  A    between atoms: _166  and  _167
REMARK   74  A    between atoms: _169  and  _171
REMARK   75  A    between atoms: _171  and  _172
REMARK   76  A    between atoms: _171  and  _174
REMARK   77  A    between atoms: _174  and  _175
REMARK   78  A    between atoms: _181  and  _183
REMARK   79  A    between atoms: _183  and  _184
REMARK   80  A    between atoms: _183  and  _186
REMARK   81  A    between atoms: _186  and  _187
REMARK   82  A    between atoms: _190  and  _192
REMARK   83  A    between atoms: _192  and  _193
REMARK   84  A    between atoms: _192  and  _195
REMARK   85  A    between atoms: _198  and  _200
REMARK   86  A    between atoms: _200  and  _201
REMARK   87  A    between atoms: _200  and  _203
REMARK   88  A    between atoms: _203  and  _204
REMARK   89  A    between atoms: _207  and  _209
REMARK   90  A    between atoms: _209  and  _210
REMARK   91  A    between atoms: _209  and  _212
REMARK   92  A    between atoms: _212  and  _213
REMARK   93  A    between atoms: _217  and  _218
REMARK   94  A    between atoms: _223  and  _225
REMARK   95  A    between atoms: _225  and  _226
REMARK   96  A    between atoms: _225  and  _228
REMARK   97  A    between atoms: _231  and  _233
REMARK   98  A    between atoms: _233  and  _234
REMARK   99  A    between atoms: _233  and  _236
REMARK  100  A    between atoms: _236  and  _237
REMARK  101  A    between atoms: _242  and  _244
REMARK  102  A    between atoms: _244  and  _245
REMARK  103  A    between atoms: _244  and  _247
REMARK  104  A    between atoms: _247  and  _248
REMARK  105  A    between atoms: _251  and  _253
REMARK  106  A    between atoms: _253  and  _254
REMARK  107  A    between atoms: _253  and  _256
REMARK  108  A    between atoms: _256  and  _257
REMARK  109  A    between atoms: _260  and  _262
REMARK  110  A    between atoms: _262  and  _263
REMARK  111  A    between atoms: _265  and  _267
REMARK  112  A    between atoms: _267  and  _268
REMARK  113  A    between atoms: _267  and  _270
REMARK  114  A    between atoms: _270  and  _271
REMARK  115  A    between atoms: _271  and  _272
REMARK  116  A    between atoms: _272  and  _273
REMARK  117  A    between atoms: _282  and  _284
REMARK  118  A    between atoms: _284  and  _285
REMARK  119  A    between atoms: _284  and  _287
REMARK  120  A    between atoms: _287  and  _288
REMARK  121  A    between atoms: _288  and  _289
REMARK  122  A    between atoms: _289  and  _290
REMARK  123  A    between atoms: _299  and  _301
REMARK  124  A    between atoms: _301  and  _302
REMARK  125  A    between atoms: _301  and  _304
REMARK  126  A    between atoms: _304  and  _305
REMARK  127  A    between atoms: _308  and  _310
REMARK  128  A    between atoms: _310  and  _311
REMARK  129  A    between atoms: _310  and  _313
REMARK  130  A    between atoms: _313  and  _314
REMARK  131  A    between atoms: _317  and  _319
REMARK  132  A    between atoms: _319  and  _320
REMARK  133  A    between atoms: _319  and  _322
REMARK  134  A    between atoms: _322  and  _323
REMARK  135  A    between atoms: _326  and  _328
REMARK  136  A    between atoms: _328  and  _329
REMARK  137  A    between atoms: _328  and  _331
REMARK  138  A    between atoms: _331  and  _332
REMARK  139  A    between atoms: _335  and  _337
REMARK  140  A    between atoms: _337  and  _338
REMARK  141  A    between atoms: _340  and  _342
REMARK  142  A    between atoms: _342  and  _343
REMARK  143  A    between atoms: _346  and  _348
REMARK  144  A    between atoms: _348  and  _349
REMARK  145  A    between atoms: _348  and  _351
REMARK  146  A    between atoms: _351  and  _352
REMARK  147  A    between atoms: _355  and  _357
REMARK  148  A    between atoms: _357  and  _358
REMARK  149  A    between atoms: _357  and  _360
REMARK  150  A    between atoms: _360  and  _361
REMARK  151  A    between atoms: _364  and  _366
REMARK  152  A    between atoms: _366  and  _367
REMARK  153  A    between atoms: _366  and  _369
REMARK  154  A    between atoms: _369  and  _370
REMARK  155  A    between atoms: _373  and  _375
REMARK  156  A    between atoms: _375  and  _376
REMARK  157  A    between atoms: _375  and  _378
REMARK  158  A    between atoms: _381  and  _383
REMARK  159  A    between atoms: _383  and  _384
REMARK  160  A    between atoms: _383  and  _386
REMARK  161  A    between atoms: _386  and  _387
REMARK  162  A    between atoms: _390  and  _392
REMARK  163  A    between atoms: _392  and  _393
REMARK  164  A    between atoms: _392  and  _395
REMARK  165  A    between atoms: _395  and  _396
REMARK  166  A    between atoms: _396  and  _397
REMARK  167  A    between atoms: _397  and  _398
REMARK  168  A    between atoms: _398  and  _399
REMARK  169  A    between atoms: _403  and  _405
REMARK  170  A    between atoms: _405  and  _406
REMARK  171  A    between atoms: _405  and  _408
REMARK  172  A    between atoms: _408  and  _409
REMARK  173  A    between atoms: _409  and  _410
REMARK  174  A    between atoms: _412  and  _414
REMARK  175  A    between atoms: _414  and  _415
REMARK  176  A    between atoms: _414  and  _417
REMARK  177  A    between atoms: _417  and  _418
REMARK  178  A    between atoms: _421  and  _423
REMARK  179  A    between atoms: _423  and  _424
REMARK  180  A    between atoms: _426  and  _428
REMARK  181  A    between atoms: _428  and  _429
REMARK  182  A    between atoms: _431  and  _433
REMARK  183  A    between atoms: _433  and  _434
REMARK  184  A    between atoms: _433  and  _436
REMARK  185  A    between atoms: _436  and  _437
REMARK  186  A    between atoms: _440  and  _442
REMARK  187  A    between atoms: _442  and  _443
REMARK  188  A    between atoms: _445  and  _447
REMARK  189  A    between atoms: _447  and  _448
REMARK  190  A    between atoms: _450  and  _452
REMARK  191  A    between atoms: _452  and  _453
REMARK  192  A    between atoms: _452  and  _455
REMARK  193  A    between atoms: _455  and  _456
REMARK  194  A    between atoms: _462  and  _464
REMARK  195  A    between atoms: _464  and  _465
REMARK  196  A    between atoms: _464  and  _467
REMARK  197  A    between atoms: _467  and  _468
REMARK  198  A    between atoms: _471  and  _473
REMARK  199  A    between atoms: _473  and  _474
REMARK  200  A    between atoms: _473  and  _476
REMARK  201  A    between atoms: _479  and  _481
REMARK  202  A    between atoms: _481  and  _482
REMARK  203  A    between atoms: _481  and  _484
REMARK  204  A    between atoms: _484  and  _485
REMARK  205  A    between atoms: _488  and  _490
REMARK  206  A    between atoms: _490  and  _491
REMARK  207  A    between atoms: _490  and  _493
REMARK  208  A    between atoms: _493  and  _494
REMARK  209  A    between atoms: _498  and  _499
REMARK  210  A    between atoms: _504  and  _506
REMARK  211  A    between atoms: _506  and  _507
REMARK  212  A    between atoms: _506  and  _509
REMARK  213  A    between atoms: _512  and  _514
REMARK  214  A    between atoms: _514  and  _515
REMARK  215  A    between atoms: _514  and  _517
REMARK  216  A    between atoms: _517  and  _518
REMARK  217  A    between atoms: _523  and  _525
REMARK  218  A    between atoms: _525  and  _526
REMARK  219  A    between atoms: _525  and  _528
REMARK  220  A    between atoms: _528  and  _529
REMARK  221  A    between atoms: _532  and  _534
REMARK  222  A    between atoms: _534  and  _535
REMARK  223  A    between atoms: _534  and  _537
REMARK  224  A    between atoms: _537  and  _538
REMARK  225  A    between atoms: _541  and  _543
REMARK  226  A    between atoms: _543  and  _544
REMARK  227  A    between atoms: _546  and  _548
REMARK  228  A    between atoms: _548  and  _549
REMARK  229  A    between atoms: _548  and  _551
REMARK  230  A    between atoms: _551  and  _552
REMARK  231  A    between atoms: _552  and  _553
REMARK  232  A    between atoms: _553  and  _554
REMARK  233  A    between atoms: _563  and  _565
REMARK  234  A    between atoms: _565  and  _566
REMARK  235  A    between atoms: _565  and  _568
REMARK  236  A    between atoms: _568  and  _569
REMARK                            x       y       z     vdW  Elec       q    Type
REMARK                         _______ _______ _______ _____ _____    ______ ____
ROOT
ATOM      1  C   GLY A   5       8.097  19.596   5.907  0.00  0.00    +0.243 C 
ATOM      2  O   GLY A   5       7.042  18.997   5.714  0.00  0.00    -0.273 OA
ATOM      3  N   ILE A   6       9.273  19.110   5.538  0.00  0.00    -0.297 N 
ATOM      4  H   ILE A   6      10.136  19.678   5.654  0.00  0.00    +0.150 HD
ENDROOT
BRANCH   3   5
ATOM      5  CA  ILE A   6       9.344  17.779   4.972  0.00  0.00    +0.149 C 
BRANCH   5   6
ATOM      6  C   ILE A   6       9.074  16.920   6.197  0.00  0.00    +0.241 C 
ATOM      7  O   ILE A   6       9.614  17.182   7.271  0.00  0.00    -0.273 OA
ATOM      8  N   GLY A   7       8.230  15.913   6.052  0.00  0.00    -0.295 N 
ATOM      9  H   GLY A   7       7.784  15.728   5.131  0.00  0.00    +0.150 HD
BRANCH   8  10
ATOM     10  CA  GLY A   7       7.934  15.071   7.192  0.00  0.00    +0.176 C 
BRANCH  10  11
ATOM     11  C   GLY A   7       6.587  15.400   7.801  0.00  0.00    +0.243 C 
ATOM     12  O   GLY A   7       6.006  14.574   8.497  0.00  0.00    -0.273 OA
ATOM     13  N   GLY A   8       6.086  16.604   7.552  0.00  0.00    -0.295 N 
ATOM     14  H   GLY A   8       6.617  17.285   6.972  0.00  0.00    +0.150 HD
BRANCH  13  15
ATOM     15  CA  GLY A   8       4.789  16.960   8.098  0.00  0.00    +0.176 C 
BRANCH  15  16
ATOM     16  C   GLY A   8       4.775  18.190   8.979  0.00  0.00    +0.243 C 
ATOM     17  N   PHE A   9       3.751  18.295   9.820  0.00  0.00    -0.297 N 
ATOM     18  H   PHE A   9       3.043  17.535   9.860  0.00  0.00    +0.150 HD
ATOM     19  O   GLY A   8       5.677  19.023   8.915  0.00  0.00    -0.273 OA
BRANCH  17  20
ATOM     20  CA  PHE A   9       3.603  19.459  10.689  0.00  0.00    +0.153 C 
BRANCH  20  21
ATOM     21  C   PHE A   9       3.947  19.227  12.153  0.00  0.00    +0.241 C 
ATOM     22  N   ILE A  10       4.312  20.317  12.823  0.00  0.00    -0.298 N 
ATOM     23  H   ILE A  10       4.389  21.218  12.309  0.00  0.00    +0.150 HD
ATOM     24  O   PHE A   9       3.887  18.100  12.660  0.00  0.00    -0.273 OA
BRANCH  22  25
ATOM     25  CA  ILE A  10       4.608  20.297  14.250  0.00  0.00    +0.137 C 
BRANCH  25  26
ATOM     26  C   ILE A  10       3.911  21.508  14.850  0.00  0.00    +0.227 C 
ATOM     27  O   ILE A  10       3.661  22.500  14.160  0.00  0.00    -0.286 OA
ENDBRANCH  25  26
BRANCH  25  28
ATOM     28  CB  ILE A  10       6.127  20.390  14.569  0.00  0.00    +0.026 C 
ATOM     29  CG2 ILE A  10       6.826  19.121  14.114  0.00  0.00    +0.002 C 
BRANCH  28  30
ATOM     30  CG1 ILE A  10       6.736  21.638  13.925  0.00  0.00    +0.002 C 
ATOM     31  CD1 ILE A  10       8.167  21.916  14.383  0.00  0.00    +0.000 C 
ENDBRANCH  28  30
ENDBRANCH  25  28
ENDBRANCH  22  25
ENDBRANCH  20  21
BRANCH  20  32
ATOM     32  CB  PHE A   9       2.161  19.986  10.630  0.00  0.00    +0.055 C 
BRANCH  32  33
ATOM     33  CG  PHE A   9       1.757  20.536   9.292  0.00  0.00    -0.020 A 
ATOM     34  CD2 PHE A   9       1.535  21.900   9.130  0.00  0.00    -0.004 A 
ATOM     35  CE2 PHE A   9       1.147  22.420   7.899  0.00  0.00    -0.000 A 
ATOM     36  CZ  PHE A   9       0.977  21.568   6.810  0.00  0.00    -0.000 A 
ATOM     37  CE1 PHE A   9       1.196  20.202   6.960  0.00  0.00    -0.000 A 
ATOM     38  CD1 PHE A   9       1.584  19.693   8.198  0.00  0.00    -0.004 A 
ENDBRANCH  32  33
ENDBRANCH  20  32
ENDBRANCH  17  20
ENDBRANCH  15  16
ENDBRANCH  13  15
ENDBRANCH  10  11
ENDBRANCH   8  10
ENDBRANCH   5   6
BRANCH   5  39
ATOM     39  CB  ILE A   6      10.753  17.458   4.425  0.00  0.00    +0.027 C 
ATOM     40  CG2 ILE A   6      10.928  15.952   4.278  0.00  0.00    +0.002 C 
BRANCH  39  41
ATOM     41  CG1 ILE A   6      10.961  18.145   3.076  0.00  0.00    +0.002 C 
ATOM     42  CD1 ILE A   6      10.987  19.639   3.152  0.00  0.00    +0.000 C 
ENDBRANCH  39  41
ENDBRANCH   5  39
ENDBRANCH   3   5
BRANCH   1  43
ATOM     43  CA  GLY A   5       8.086  20.960   6.552  0.00  0.00    +0.176 C 
BRANCH  43  45
ATOM     44  C   GLY A   4       6.144  22.204   7.268  0.00  0.00    +0.243 C 
ATOM     45  N   GLY A   5       6.828  21.069   7.262  0.00  0.00    -0.295 N 
ATOM     46  H   GLY A   5       6.456  20.244   7.775  0.00  0.00    +0.150 HD
ATOM     47  O   GLY A   4       6.528  23.229   6.705  0.00  0.00    -0.273 OA
BRANCH  44  48
ATOM     48  CA  GLY A   4       4.840  22.159   8.036  0.00  0.00    +0.176 C 
BRANCH  48  51
ATOM     49  C   ILE A   3       4.406  23.408  10.051  0.00  0.00    +0.241 C 
ATOM     50  O   ILE A   3       4.595  22.417  10.753  0.00  0.00    -0.273 OA
ATOM     51  N   GLY A   4       4.505  23.388   8.728  0.00  0.00    -0.295 N 
ATOM     52  H   GLY A   4       4.341  24.259   8.184  0.00  0.00    +0.150 HD
BRANCH  49  53
ATOM     53  CA  ILE A   3       4.011  24.736  10.673  0.00  0.00    +0.149 C 
BRANCH  53  55
ATOM     54  C   MET A   2       1.933  24.963  11.892  0.00  0.00    +0.241 C 
ATOM     55  N   ILE A   3       3.160  24.462  11.821  0.00  0.00    -0.297 N 
ATOM     56  H   ILE A   3       3.517  23.867  12.595  0.00  0.00    +0.150 HD
ATOM     57  O   MET A   2       1.471  25.722  11.039  0.00  0.00    -0.273 OA
BRANCH  54  58
ATOM     58  CA  MET A   2       1.108  24.589  13.112  0.00  0.00    +0.149 C 
BRANCH  58  61
ATOM     59  C   LYS A   1       1.076  26.254  14.891  0.00  0.00    +0.238 C 
ATOM     60  O   LYS A   1       1.820  25.589  15.609  0.00  0.00    -0.274 OA
ATOM     61  N   MET A   2       0.656  25.841  13.700  0.00  0.00    -0.297 N 
ATOM     62  H   MET A   2      -0.017  26.431  13.171  0.00  0.00    +0.150 HD
BRANCH  59  63
ATOM     63  CA  LYS A   1       0.556  27.608  15.351  0.00  0.00    +0.145 C 
BRANCH  63  64
ATOM     64  N   LYS A   1       0.476  27.640  16.807  0.00  0.00    -0.238 NA
ATOM     65  H   LYS A   1       1.139  27.065  17.364  0.00  0.00    +0.142 HD
ENDBRANCH  63  64
BRANCH  63  66
ATOM     66  CB  LYS A   1       1.491  28.707  14.825  0.00  0.00    +0.026 C 
BRANCH  66  67
ATOM     67  CG  LYS A   1       1.509  28.809  13.299  0.00  0.00    -0.000 C 
BRANCH  67  68
ATOM     68  CD  LYS A   1       2.484  29.868  12.786  0.00  0.00    -0.024 C 
BRANCH  68  69
ATOM     69  CE  LYS A   1       2.304  30.081  11.285  0.00  0.00    -0.086 C 
BRANCH  69  70
ATOM     70  NZ  LYS A   1       3.307  31.012  10.690  0.00  0.00    +0.380 N 
ATOM     71  HZ1 LYS A   1       3.229  31.942  11.148  0.00  0.00    -0.089 HD
ATOM     72  HZ2 LYS A   1       4.263  30.630  10.838  0.00  0.00    -0.089 HD
ATOM     73  HZ3 LYS A   1       3.125  31.110   9.671  0.00  0.00    -0.089 HD
ENDBRANCH  69  70
ENDBRANCH  68  69
ENDBRANCH  67  68
ENDBRANCH  66  67
ENDBRANCH  63  66
ENDBRANCH  59  63
ENDBRANCH  58  61
BRANCH  58  74
ATOM     74  CB  MET A   2      -0.081  23.733  12.667  0.00  0.00    +0.041 C 
BRANCH  74  75
ATOM     75  CG  MET A   2      -0.843  23.092  13.801  0.00  0.00    +0.060 C 
BRANCH  75  76
ATOM     76  SD  MET A   2       0.087  21.743  14.540  0.00  0.00    -0.139 S 
ATOM     77  CE  MET A   2      -0.396  20.402  13.474  0.00  0.00    +0.069 C 
ENDBRANCH  75  76
ENDBRANCH  74  75
ENDBRANCH  58  74
ENDBRANCH  54  58
ENDBRANCH  53  55
BRANCH  53  78
ATOM     78  CB  ILE A   3       5.274  25.550  11.055  0.00  0.00    +0.027 C 
ATOM     79  CG2 ILE A   3       4.857  26.936  11.529  0.00  0.00    +0.002 C 
BRANCH  78  80
ATOM     80  CG1 ILE A   3       6.083  24.826  12.128  0.00  0.00    +0.002 C 
ATOM     81  CD1 ILE A   3       7.360  25.562  12.528  0.00  0.00    +0.000 C 
ENDBRANCH  78  80
ENDBRANCH  53  78
ENDBRANCH  49  53
ENDBRANCH  48  51
ENDBRANCH  44  48
ENDBRANCH  43  45
ENDBRANCH   1  43
TORSDOF 36
REMARK  Name = ../refined-set-2016/2cen/2cen_pocket.pdb
REMARK  236 active torsions:
REMARK  status: ('A' for Active; 'I' for Inactive)
REMARK    1  A    between atoms: _1  and  _3
REMARK    2  A    between atoms: _3  and  _4
REMARK    3  A    between atoms: _3  and  _6
REMARK    4  A    between atoms: _6  and  _7
REMARK    5  A    between atoms: _7  and  _8
REMARK    6  A    between atoms: _8  and  _9
REMARK    7  A    between atoms: _18  and  _20
REMARK    8  A    between atoms: _20  and  _21
REMARK    9  A    between atoms: _20  and  _23
REMARK   10  A    between atoms: _23  and  _24
REMARK   11  A    between atoms: _27  and  _29
REMARK   12  A    between atoms: _29  and  _30
REMARK   13  A    between atoms: _29  and  _32
REMARK   14  A    between atoms: _32  and  _33
REMARK   15  A    between atoms: _36  and  _38
REMARK   16  A    between atoms: _38  and  _39
REMARK   17  A    between atoms: _38  and  _41
REMARK   18  A    between atoms: _41  and  _42
REMARK   19  A    between atoms: _45  and  _47
REMARK   20  A    between atoms: _47  and  _48
REMARK   21  A    between atoms: _47  and  _50
REMARK   22  A    between atoms: _50  and  _51
REMARK   23  A    between atoms: _54  and  _56
REMARK   24  A    between atoms: _56  and  _57
REMARK   25  A    between atoms: _56  and  _59
REMARK   26  A    between atoms: _59  and  _60
REMARK   27  A    between atoms: _63  and  _65
REMARK   28  A    between atoms: _65  and  _66
REMARK   29  A    between atoms: _68  and  _70
REMARK   30  A    between atoms: _70  and  _71
REMARK   31  A    between atoms: _74  and  _76
REMARK   32  A    between atoms: _76  and  _77
REMARK   33  A    between atoms: _76  and  _79
REMARK   34  A    between atoms: _79  and  _80
REMARK   35  A    between atoms: _83  and  _85
REMARK   36  A    between atoms: _85  and  _86
REMARK   37  A    between atoms: _85  and  _88
REMARK   38  A    between atoms: _88  and  _89
REMARK   39  A    between atoms: _92  and  _94
REMARK   40  A    between atoms: _94  and  _95
REMARK   41  A    between atoms: _94  and  _97
REMARK   42  A    between atoms: _97  and  _98
REMARK   43  A    between atoms: _101  and  _103
REMARK   44  A    between atoms: _103  and  _104
REMARK   45  A    between atoms: _103  and  _106
REMARK   46  A    between atoms: _109  and  _111
REMARK   47  A    between atoms: _111  and  _112
REMARK   48  A    between atoms: _111  and  _114
REMARK   49  A    between atoms: _114  and  _115
REMARK   50  A    between atoms: _115  and  _116
REMARK   51  A    between atoms: _116  and  _117
REMARK   52  A    between atoms: _117  and  _118
REMARK   53  A    between atoms: _122  and  _124
REMARK   54  A    between atoms: _124  and  _125
REMARK   55  A    between atoms: _124  and  _127
REMARK   56  A    between atoms: _127  and  _128
REMARK   57  A    between atoms: _128  and  _129
REMARK   58  A    between atoms: _131  and  _133
REMARK   59  A    between atoms: _133  and  _134
REMARK   60  A    between atoms: _133  and  _136
REMARK   61  A    between atoms: _136  and  _137
REMARK   62  A    between atoms: _140  and  _142
REMARK   63  A    between atoms: _142  and  _143
REMARK   64  A    between atoms: _145  and  _147
REMARK   65  A    between atoms: _147  and  _148
REMARK   66  A    between atoms: _150  and  _152
REMARK   67  A    between atoms: _152  and  _153
REMARK   68  A    between atoms: _152  and  _155
REMARK   69  A    between atoms: _155  and  _156
REMARK   70  A    between atoms: _159  and  _161
REMARK   71  A    between atoms: _161  and  _162
REMARK   72  A    between atoms: _164  and  _166
REMARK   73  A    between atoms: _166  and  _167
REMARK   74  A    between atoms: _169  and  _171
REMARK   75  A    between atoms: _171  and  _172
REMARK   76  A    between atoms: _171  and  _174
REMARK   77  A    between atoms: _174  and  _175
REMARK   78  A    between atoms: _181  and  _183
REMARK   79  A    between atoms: _183  and  _184
REMARK   80  A    between atoms: _183  and  _186
REMARK   81  A    between atoms: _186  and  _187
REMARK   82  A    between atoms: _190  and  _192
REMARK   83  A    between atoms: _192  and  _193
REMARK   84  A    between atoms: _192  and  _195
REMARK   85  A    between atoms: _198  and  _200
REMARK   86  A    between atoms: _200  and  _201
REMARK   87  A    between atoms: _200  and  _203
REMARK   88  A    between atoms: _203  and  _204
REMARK   89  A    between atoms: _207  and  _209
REMARK   90  A    between atoms: _209  and  _210
REMARK   91  A    between atoms: _209  and  _212
REMARK   92  A    between atoms: _212  and  _213
REMARK   93  A    between atoms: _217  and  _218
REMARK   94  A    between atoms: _223  and  _225
REMARK   95  A    between atoms: _225  and  _226
REMARK   96  A    between atoms: _225  and  _228
REMARK   97  A    between atoms: _231  and  _233
REMARK   98  A    between atoms: _233  and  _234
REMARK   99  A    between atoms: _233  and  _236
REMARK  100  A    between atoms: _236  and  _237
REMARK  101  A    between atoms: _242  and  _244
REMARK  102  A    between atoms: _244  and  _245
REMARK  103  A    between atoms: _244  and  _247
REMARK  104  A    between atoms: _247  and  _248
REMARK  105  A    between atoms: _251  and  _253
REMARK  106  A    between atoms: _253  and  _254
REMARK  107  A    between atoms: _253  and  _256
REMARK  108  A    between atoms: _256  and  _257
REMARK  109  A    between atoms: _260  and  _262
REMARK  110  A    between atoms: _262  and  _263
REMARK  111  A    between atoms: _265  and  _267
REMARK  112  A    between atoms: _267  and  _268
REMARK  113  A    between atoms: _267  and  _270
REMARK  114  A    between atoms: _270  and  _271
REMARK  115  A    between atoms: _271  and  _272
REMARK  116  A    between atoms: _272  and  _273
REMARK  117  A    between atoms: _282  and  _284
REMARK  118  A    between atoms: _284  and  _285
REMARK  119  A    between atoms: _284  and  _287
REMARK  120  A    between atoms: _287  and  _288
REMARK  121  A    between atoms: _288  and  _289
REMARK  122  A    between atoms: _289  and  _290
REMARK  123  A    between atoms: _299  and  _301
REMARK  124  A    between atoms: _301  and  _302
REMARK  125  A    between atoms: _301  and  _304
REMARK  126  A    between atoms: _304  and  _305
REMARK  127  A    between atoms: _308  and  _310
REMARK  128  A    between atoms: _310  and  _311
REMARK  129  A    between atoms: _310  and  _313
REMARK  130  A    between atoms: _313  and  _314
REMARK  131  A    between atoms: _317  and  _319
REMARK  132  A    between atoms: _319  and  _320
REMARK  133  A    between atoms: _319  and  _322
REMARK  134  A    between atoms: _322  and  _323
REMARK  135  A    between atoms: _326  and  _328
REMARK  136  A    between atoms: _328  and  _329
REMARK  137  A    between atoms: _328  and  _331
REMARK  138  A    between atoms: _331  and  _332
REMARK  139  A    between atoms: _335  and  _337
REMARK  140  A    between atoms: _337  and  _338
REMARK  141  A    between atoms: _340  and  _342
REMARK  142  A    between atoms: _342  and  _343
REMARK  143  A    between atoms: _346  and  _348
REMARK  144  A    between atoms: _348  and  _349
REMARK  145  A    between atoms: _348  and  _351
REMARK  146  A    between atoms: _351  and  _352
REMARK  147  A    between atoms: _355  and  _357
REMARK  148  A    between atoms: _357  and  _358
REMARK  149  A    between atoms: _357  and  _360
REMARK  150  A    between atoms: _360  and  _361
REMARK  151  A    between atoms: _364  and  _366
REMARK  152  A    between atoms: _366  and  _367
REMARK  153  A    between atoms: _366  and  _369
REMARK  154  A    between atoms: _369  and  _370
REMARK  155  A    between atoms: _373  and  _375
REMARK  156  A    between atoms: _375  and  _376
REMARK  157  A    between atoms: _375  and  _378
REMARK  158  A    between atoms: _381  and  _383
REMARK  159  A    between atoms: _383  and  _384
REMARK  160  A    between atoms: _383  and  _386
REMARK  161  A    between atoms: _386  and  _387
REMARK  162  A    between atoms: _390  and  _392
REMARK  163  A    between atoms: _392  and  _393
REMARK  164  A    between atoms: _392  and  _395
REMARK  165  A    between atoms: _395  and  _396
REMARK  166  A    between atoms: _396  and  _397
REMARK  167  A    between atoms: _397  and  _398
REMARK  168  A    between atoms: _398  and  _399
REMARK  169  A    between atoms: _403  and  _405
REMARK  170  A    between atoms: _405  and  _406
REMARK  171  A    between atoms: _405  and  _408
REMARK  172  A    between atoms: _408  and  _409
REMARK  173  A    between atoms: _409  and  _410
REMARK  174  A    between atoms: _412  and  _414
REMARK  175  A    between atoms: _414  and  _415
REMARK  176  A    between atoms: _414  and  _417
REMARK  177  A    between atoms: _417  and  _418
REMARK  178  A    between atoms: _421  and  _423
REMARK  179  A    between atoms: _423  and  _424
REMARK  180  A    between atoms: _426  and  _428
REMARK  181  A    between atoms: _428  and  _429
REMARK  182  A    between atoms: _431  and  _433
REMARK  183  A    between atoms: _433  and  _434
REMARK  184  A    between atoms: _433  and  _436
REMARK  185  A    between atoms: _436  and  _437
REMARK  186  A    between atoms: _440  and  _442
REMARK  187  A    between atoms: _442  and  _443
REMARK  188  A    between atoms: _445  and  _447
REMARK  189  A    between atoms: _447  and  _448
REMARK  190  A    between atoms: _450  and  _452
REMARK  191  A    between atoms: _452  and  _453
REMARK  192  A    between atoms: _452  and  _455
REMARK  193  A    between atoms: _455  and  _456
REMARK  194  A    between atoms: _462  and  _464
REMARK  195  A    between atoms: _464  and  _465
REMARK  196  A    between atoms: _464  and  _467
REMARK  197  A    between atoms: _467  and  _468
REMARK  198  A    between atoms: _471  and  _473
REMARK  199  A    between atoms: _473  and  _474
REMARK  200  A    between atoms: _473  and  _476
REMARK  201  A    between atoms: _479  and  _481
REMARK  202  A    between atoms: _481  and  _482
REMARK  203  A    between atoms: _481  and  _484
REMARK  204  A    between atoms: _484  and  _485
REMARK  205  A    between atoms: _488  and  _490
REMARK  206  A    between atoms: _490  and  _491
REMARK  207  A    between atoms: _490  and  _493
REMARK  208  A    between atoms: _493  and  _494
REMARK  209  A    between atoms: _498  and  _499
REMARK  210  A    between atoms: _504  and  _506
REMARK  211  A    between atoms: _506  and  _507
REMARK  212  A    between atoms: _506  and  _509
REMARK  213  A    between atoms: _512  and  _514
REMARK  214  A    between atoms: _514  and  _515
REMARK  215  A    between atoms: _514  and  _517
REMARK  216  A    between atoms: _517  and  _518
REMARK  217  A    between atoms: _523  and  _525
REMARK  218  A    between atoms: _525  and  _526
REMARK  219  A    between atoms: _525  and  _528
REMARK  220  A    between atoms: _528  and  _529
REMARK  221  A    between atoms: _532  and  _534
REMARK  222  A    between atoms: _534  and  _535
REMARK  223  A    between atoms: _534  and  _537
REMARK  224  A    between atoms: _537  and  _538
REMARK  225  A    between atoms: _541  and  _543
REMARK  226  A    between atoms: _543  and  _544
REMARK  227  A    between atoms: _546  and  _548
REMARK  228  A    between atoms: _548  and  _549
REMARK  229  A    between atoms: _548  and  _551
REMARK  230  A    between atoms: _551  and  _552
REMARK  231  A    between atoms: _552  and  _553
REMARK  232  A    between atoms: _553  and  _554
REMARK  233  A    between atoms: _563  and  _565
REMARK  234  A    between atoms: _565  and  _566
REMARK  235  A    between atoms: _565  and  _568
REMARK  236  A    between atoms: _568  and  _569
REMARK                            x       y       z     vdW  Elec       q    Type
REMARK                         _______ _______ _______ _____ _____    ______ ____
ROOT
ATOM      1  CA  VAL A   1       4.806  25.579  18.015  0.00  0.00    +0.133 C 
ENDROOT
BRANCH   1   2
ATOM      2  CB  VAL A   1       5.778  26.177  16.960  0.00  0.00    +0.023 C 
ATOM      3  CG2 VAL A   1       6.577  25.070  16.290  0.00  0.00    +0.002 C 
ATOM      4  CG1 VAL A   1       4.993  26.962  15.918  0.00  0.00    +0.002 C 
ENDBRANCH   1   2
BRANCH   1   5
ATOM      5  N   VAL A   1       3.863  24.657  17.393  0.00  0.00    -0.239 NA
ATOM      6  H   VAL A   1       3.091  25.042  16.812  0.00  0.00    +0.142 HD
ENDBRANCH   1   5
BRANCH   1   7
ATOM      7  C   VAL A   1       4.069  26.735  18.679  0.00  0.00    +0.224 C 
ATOM      8  O   VAL A   1       2.867  26.921  18.476  0.00  0.00    -0.287 OA
ENDBRANCH   1   7
TORSDOF 3
REMARK  Name = ../refined-set-2016/2cen/2cen_pocket.pdb
REMARK  236 active torsions:
REMARK  status: ('A' for Active; 'I' for Inactive)
REMARK    1  A    between atoms: _1  and  _3
REMARK    2  A    between atoms: _3  and  _4
REMARK    3  A    between atoms: _3  and  _6
REMARK    4  A    between atoms: _6  and  _7
REMARK    5  A    between atoms: _7  and  _8
REMARK    6  A    between atoms: _8  and  _9
REMARK    7  A    between atoms: _18  and  _20
REMARK    8  A    between atoms: _20  and  _21
REMARK    9  A    between atoms: _20  and  _23
REMARK   10  A    between atoms: _23  and  _24
REMARK   11  A    between atoms: _27  and  _29
REMARK   12  A    between atoms: _29  and  _30
REMARK   13  A    between atoms: _29  and  _32
REMARK   14  A    between atoms: _32  and  _33
REMARK   15  A    between atoms: _36  and  _38
REMARK   16  A    between atoms: _38  and  _39
REMARK   17  A    between atoms: _38  and  _41
REMARK   18  A    between atoms: _41  and  _42
REMARK   19  A    between atoms: _45  and  _47
REMARK   20  A    between atoms: _47  and  _48
REMARK   21  A    between atoms: _47  and  _50
REMARK   22  A    between atoms: _50  and  _51
REMARK   23  A    between atoms: _54  and  _56
REMARK   24  A    between atoms: _56  and  _57
REMARK   25  A    between atoms: _56  and  _59
REMARK   26  A    between atoms: _59  and  _60
REMARK   27  A    between atoms: _63  and  _65
REMARK   28  A    between atoms: _65  and  _66
REMARK   29  A    between atoms: _68  and  _70
REMARK   30  A    between atoms: _70  and  _71
REMARK   31  A    between atoms: _74  and  _76
REMARK   32  A    between atoms: _76  and  _77
REMARK   33  A    between atoms: _76  and  _79
REMARK   34  A    between atoms: _79  and  _80
REMARK   35  A    between atoms: _83  and  _85
REMARK   36  A    between atoms: _85  and  _86
REMARK   37  A    between atoms: _85  and  _88
REMARK   38  A    between atoms: _88  and  _89
REMARK   39  A    between atoms: _92  and  _94
REMARK   40  A    between atoms: _94  and  _95
REMARK   41  A    between atoms: _94  and  _97
REMARK   42  A    between atoms: _97  and  _98
REMARK   43  A    between atoms: _101  and  _103
REMARK   44  A    between atoms: _103  and  _104
REMARK   45  A    between atoms: _103  and  _106
REMARK   46  A    between atoms: _109  and  _111
REMARK   47  A    between atoms: _111  and  _112
REMARK   48  A    between atoms: _111  and  _114
REMARK   49  A    between atoms: _114  and  _115
REMARK   50  A    between atoms: _115  and  _116
REMARK   51  A    between atoms: _116  and  _117
REMARK   52  A    between atoms: _117  and  _118
REMARK   53  A    between atoms: _122  and  _124
REMARK   54  A    between atoms: _124  and  _125
REMARK   55  A    between atoms: _124  and  _127
REMARK   56  A    between atoms: _127  and  _128
REMARK   57  A    between atoms: _128  and  _129
REMARK   58  A    between atoms: _131  and  _133
REMARK   59  A    between atoms: _133  and  _134
REMARK   60  A    between atoms: _133  and  _136
REMARK   61  A    between atoms: _136  and  _137
REMARK   62  A    between atoms: _140  and  _142
REMARK   63  A    between atoms: _142  and  _143
REMARK   64  A    between atoms: _145  and  _147
REMARK   65  A    between atoms: _147  and  _148
REMARK   66  A    between atoms: _150  and  _152
REMARK   67  A    between atoms: _152  and  _153
REMARK   68  A    between atoms: _152  and  _155
REMARK   69  A    between atoms: _155  and  _156
REMARK   70  A    between atoms: _159  and  _161
REMARK   71  A    between atoms: _161  and  _162
REMARK   72  A    between atoms: _164  and  _166
REMARK   73  A    between atoms: _166  and  _167
REMARK   74  A    between atoms: _169  and  _171
REMARK   75  A    between atoms: _171  and  _172
REMARK   76  A    between atoms: _171  and  _174
REMARK   77  A    between atoms: _174  and  _175
REMARK   78  A    between atoms: _181  and  _183
REMARK   79  A    between atoms: _183  and  _184
REMARK   80  A    between atoms: _183  and  _186
REMARK   81  A    between atoms: _186  and  _187
REMARK   82  A    between atoms: _190  and  _192
REMARK   83  A    between atoms: _192  and  _193
REMARK   84  A    between atoms: _192  and  _195
REMARK   85  A    between atoms: _198  and  _200
REMARK   86  A    between atoms: _200  and  _201
REMARK   87  A    between atoms: _200  and  _203
REMARK   88  A    between atoms: _203  and  _204
REMARK   89  A    between atoms: _207  and  _209
REMARK   90  A    between atoms: _209  and  _210
REMARK   91  A    between atoms: _209  and  _212
REMARK   92  A    between atoms: _212  and  _213
REMARK   93  A    between atoms: _217  and  _218
REMARK   94  A    between atoms: _223  and  _225
REMARK   95  A    between atoms: _225  and  _226
REMARK   96  A    between atoms: _225  and  _228
REMARK   97  A    between atoms: _231  and  _233
REMARK   98  A    between atoms: _233  and  _234
REMARK   99  A    between atoms: _233  and  _236
REMARK  100  A    between atoms: _236  and  _237
REMARK  101  A    between atoms: _242  and  _244
REMARK  102  A    between atoms: _244  and  _245
REMARK  103  A    between atoms: _244  and  _247
REMARK  104  A    between atoms: _247  and  _248
REMARK  105  A    between atoms: _251  and  _253
REMARK  106  A    between atoms: _253  and  _254
REMARK  107  A    between atoms: _253  and  _256
REMARK  108  A    between atoms: _256  and  _257
REMARK  109  A    between atoms: _260  and  _262
REMARK  110  A    between atoms: _262  and  _263
REMARK  111  A    between atoms: _265  and  _267
REMARK  112  A    between atoms: _267  and  _268
REMARK  113  A    between atoms: _267  and  _270
REMARK  114  A    between atoms: _270  and  _271
REMARK  115  A    between atoms: _271  and  _272
REMARK  116  A    between atoms: _272  and  _273
REMARK  117  A    between atoms: _282  and  _284
REMARK  118  A    between atoms: _284  and  _285
REMARK  119  A    between atoms: _284  and  _287
REMARK  120  A    between atoms: _287  and  _288
REMARK  121  A    between atoms: _288  and  _289
REMARK  122  A    between atoms: _289  and  _290
REMARK  123  A    between atoms: _299  and  _301
REMARK  124  A    between atoms: _301  and  _302
REMARK  125  A    between atoms: _301  and  _304
REMARK  126  A    between atoms: _304  and  _305
REMARK  127  A    between atoms: _308  and  _310
REMARK  128  A    between atoms: _310  and  _311
REMARK  129  A    between atoms: _310  and  _313
REMARK  130  A    between atoms: _313  and  _314
REMARK  131  A    between atoms: _317  and  _319
REMARK  132  A    between atoms: _319  and  _320
REMARK  133  A    between atoms: _319  and  _322
REMARK  134  A    between atoms: _322  and  _323
REMARK  135  A    between atoms: _326  and  _328
REMARK  136  A    between atoms: _328  and  _329
REMARK  137  A    between atoms: _328  and  _331
REMARK  138  A    between atoms: _331  and  _332
REMARK  139  A    between atoms: _335  and  _337
REMARK  140  A    between atoms: _337  and  _338
REMARK  141  A    between atoms: _340  and  _342
REMARK  142  A    between atoms: _342  and  _343
REMARK  143  A    between atoms: _346  and  _348
REMARK  144  A    between atoms: _348  and  _349
REMARK  145  A    between atoms: _348  and  _351
REMARK  146  A    between atoms: _351  and  _352
REMARK  147  A    between atoms: _355  and  _357
REMARK  148  A    between atoms: _357  and  _358
REMARK  149  A    between atoms: _357  and  _360
REMARK  150  A    between atoms: _360  and  _361
REMARK  151  A    between atoms: _364  and  _366
REMARK  152  A    between atoms: _366  and  _367
REMARK  153  A    between atoms: _366  and  _369
REMARK  154  A    between atoms: _369  and  _370
REMARK  155  A    between atoms: _373  and  _375
REMARK  156  A    between atoms: _375  and  _376
REMARK  157  A    between atoms: _375  and  _378
REMARK  158  A    between atoms: _381  and  _383
REMARK  159  A    between atoms: _383  and  _384
REMARK  160  A    between atoms: _383  and  _386
REMARK  161  A    between atoms: _386  and  _387
REMARK  162  A    between atoms: _390  and  _392
REMARK  163  A    between atoms: _392  and  _393
REMARK  164  A    between atoms: _392  and  _395
REMARK  165  A    between atoms: _395  and  _396
REMARK  166  A    between atoms: _396  and  _397
REMARK  167  A    between atoms: _397  and  _398
REMARK  168  A    between atoms: _398  and  _399
REMARK  169  A    between atoms: _403  and  _405
REMARK  170  A    between atoms: _405  and  _406
REMARK  171  A    between atoms: _405  and  _408
REMARK  172  A    between atoms: _408  and  _409
REMARK  173  A    between atoms: _409  and  _410
REMARK  174  A    between atoms: _412  and  _414
REMARK  175  A    between atoms: _414  and  _415
REMARK  176  A    between atoms: _414  and  _417
REMARK  177  A    between atoms: _417  and  _418
REMARK  178  A    between atoms: _421  and  _423
REMARK  179  A    between atoms: _423  and  _424
REMARK  180  A    between atoms: _426  and  _428
REMARK  181  A    between atoms: _428  and  _429
REMARK  182  A    between atoms: _431  and  _433
REMARK  183  A    between atoms: _433  and  _434
REMARK  184  A    between atoms: _433  and  _436
REMARK  185  A    between atoms: _436  and  _437
REMARK  186  A    between atoms: _440  and  _442
REMARK  187  A    between atoms: _442  and  _443
REMARK  188  A    between atoms: _445  and  _447
REMARK  189  A    between atoms: _447  and  _448
REMARK  190  A    between atoms: _450  and  _452
REMARK  191  A    between atoms: _452  and  _453
REMARK  192  A    between atoms: _452  and  _455
REMARK  193  A    between atoms: _455  and  _456
REMARK  194  A    between atoms: _462  and  _464
REMARK  195  A    between atoms: _464  and  _465
REMARK  196  A    between atoms: _464  and  _467
REMARK  197  A    between atoms: _467  and  _468
REMARK  198  A    between atoms: _471  and  _473
REMARK  199  A    between atoms: _473  and  _474
REMARK  200  A    between atoms: _473  and  _476
REMARK  201  A    between atoms: _479  and  _481
REMARK  202  A    between atoms: _481  and  _482
REMARK  203  A    between atoms: _481  and  _484
REMARK  204  A    between atoms: _484  and  _485
REMARK  205  A    between atoms: _488  and  _490
REMARK  206  A    between atoms: _490  and  _491
REMARK  207  A    between atoms: _490  and  _493
REMARK  208  A    between atoms: _493  and  _494
REMARK  209  A    between atoms: _498  and  _499
REMARK  210  A    between atoms: _504  and  _506
REMARK  211  A    between atoms: _506  and  _507
REMARK  212  A    between atoms: _506  and  _509
REMARK  213  A    between atoms: _512  and  _514
REMARK  214  A    between atoms: _514  and  _515
REMARK  215  A    between atoms: _514  and  _517
REMARK  216  A    between atoms: _517  and  _518
REMARK  217  A    between atoms: _523  and  _525
REMARK  218  A    between atoms: _525  and  _526
REMARK  219  A    between atoms: _525  and  _528
REMARK  220  A    between atoms: _528  and  _529
REMARK  221  A    between atoms: _532  and  _534
REMARK  222  A    between atoms: _534  and  _535
REMARK  223  A    between atoms: _534  and  _537
REMARK  224  A    between atoms: _537  and  _538
REMARK  225  A    between atoms: _541  and  _543
REMARK  226  A    between atoms: _543  and  _544
REMARK  227  A    between atoms: _546  and  _548
REMARK  228  A    between atoms: _548  and  _549
REMARK  229  A    between atoms: _548  and  _551
REMARK  230  A    between atoms: _551  and  _552
REMARK  231  A    between atoms: _552  and  _553
REMARK  232  A    between atoms: _553  and  _554
REMARK  233  A    between atoms: _563  and  _565
REMARK  234  A    between atoms: _565  and  _566
REMARK  235  A    between atoms: _565  and  _568
REMARK  236  A    between atoms: _568  and  _569
REMARK                            x       y       z     vdW  Elec       q    Type
REMARK                         _______ _______ _______ _____ _____    ______ ____
ROOT
ATOM      1  CA  LEU A   1       8.215  30.372  16.805  0.00  0.00    +0.133 C 
ENDROOT
BRANCH   1   2
ATOM      2  N   LEU A   1       8.994  31.534  16.416  0.00  0.00    -0.239 NA
ATOM      3  H   LEU A   1       9.666  31.460  15.626  0.00  0.00    +0.142 HD
ENDBRANCH   1   2
BRANCH   1   4
ATOM      4  C   LEU A   1       9.100  29.483  17.663  0.00  0.00    +0.224 C 
ATOM      5  O   LEU A   1      10.300  29.372  17.421  0.00  0.00    -0.287 OA
ENDBRANCH   1   4
BRANCH   1   6
ATOM      6  CB  LEU A   1       7.741  29.613  15.559  0.00  0.00    +0.025 C 
BRANCH   6   7
ATOM      7  CG  LEU A   1       7.031  30.457  14.489  0.00  0.00    +0.002 C 
ATOM      8  CD2 LEU A   1       5.812  31.155  15.087  0.00  0.00    +0.000 C 
ATOM      9  CD1 LEU A   1       6.615  29.555  13.328  0.00  0.00    +0.000 C 
ENDBRANCH   6   7
ENDBRANCH   1   6
TORSDOF 4
REMARK  Name = ../refined-set-2016/2cen/2cen_pocket.pdb
REMARK  236 active torsions:
REMARK  status: ('A' for Active; 'I' for Inactive)
REMARK    1  A    between atoms: _1  and  _3
REMARK    2  A    between atoms: _3  and  _4
REMARK    3  A    between atoms: _3  and  _6
REMARK    4  A    between atoms: _6  and  _7
REMARK    5  A    between atoms: _7  and  _8
REMARK    6  A    between atoms: _8  and  _9
REMARK    7  A    between atoms: _18  and  _20
REMARK    8  A    between atoms: _20  and  _21
REMARK    9  A    between atoms: _20  and  _23
REMARK   10  A    between atoms: _23  and  _24
REMARK   11  A    between atoms: _27  and  _29
REMARK   12  A    between atoms: _29  and  _30
REMARK   13  A    between atoms: _29  and  _32
REMARK   14  A    between atoms: _32  and  _33
REMARK   15  A    between atoms: _36  and  _38
REMARK   16  A    between atoms: _38  and  _39
REMARK   17  A    between atoms: _38  and  _41
REMARK   18  A    between atoms: _41  and  _42
REMARK   19  A    between atoms: _45  and  _47
REMARK   20  A    between atoms: _47  and  _48
REMARK   21  A    between atoms: _47  and  _50
REMARK   22  A    between atoms: _50  and  _51
REMARK   23  A    between atoms: _54  and  _56
REMARK   24  A    between atoms: _56  and  _57
REMARK   25  A    between atoms: _56  and  _59
REMARK   26  A    between atoms: _59  and  _60
REMARK   27  A    between atoms: _63  and  _65
REMARK   28  A    between atoms: _65  and  _66
REMARK   29  A    between atoms: _68  and  _70
REMARK   30  A    between atoms: _70  and  _71
REMARK   31  A    between atoms: _74  and  _76
REMARK   32  A    between atoms: _76  and  _77
REMARK   33  A    between atoms: _76  and  _79
REMARK   34  A    between atoms: _79  and  _80
REMARK   35  A    between atoms: _83  and  _85
REMARK   36  A    between atoms: _85  and  _86
REMARK   37  A    between atoms: _85  and  _88
REMARK   38  A    between atoms: _88  and  _89
REMARK   39  A    between atoms: _92  and  _94
REMARK   40  A    between atoms: _94  and  _95
REMARK   41  A    between atoms: _94  and  _97
REMARK   42  A    between atoms: _97  and  _98
REMARK   43  A    between atoms: _101  and  _103
REMARK   44  A    between atoms: _103  and  _104
REMARK   45  A    between atoms: _103  and  _106
REMARK   46  A    between atoms: _109  and  _111
REMARK   47  A    between atoms: _111  and  _112
REMARK   48  A    between atoms: _111  and  _114
REMARK   49  A    between atoms: _114  and  _115
REMARK   50  A    between atoms: _115  and  _116
REMARK   51  A    between atoms: _116  and  _117
REMARK   52  A    between atoms: _117  and  _118
REMARK   53  A    between atoms: _122  and  _124
REMARK   54  A    between atoms: _124  and  _125
REMARK   55  A    between atoms: _124  and  _127
REMARK   56  A    between atoms: _127  and  _128
REMARK   57  A    between atoms: _128  and  _129
REMARK   58  A    between atoms: _131  and  _133
REMARK   59  A    between atoms: _133  and  _134
REMARK   60  A    between atoms: _133  and  _136
REMARK   61  A    between atoms: _136  and  _137
REMARK   62  A    between atoms: _140  and  _142
REMARK   63  A    between atoms: _142  and  _143
REMARK   64  A    between atoms: _145  and  _147
REMARK   65  A    between atoms: _147  and  _148
REMARK   66  A    between atoms: _150  and  _152
REMARK   67  A    between atoms: _152  and  _153
REMARK   68  A    between atoms: _152  and  _155
REMARK   69  A    between atoms: _155  and  _156
REMARK   70  A    between atoms: _159  and  _161
REMARK   71  A    between atoms: _161  and  _162
REMARK   72  A    between atoms: _164  and  _166
REMARK   73  A    between atoms: _166  and  _167
REMARK   74  A    between atoms: _169  and  _171
REMARK   75  A    between atoms: _171  and  _172
REMARK   76  A    between atoms: _171  and  _174
REMARK   77  A    between atoms: _174  and  _175
REMARK   78  A    between atoms: _181  and  _183
REMARK   79  A    between atoms: _183  and  _184
REMARK   80  A    between atoms: _183  and  _186
REMARK   81  A    between atoms: _186  and  _187
REMARK   82  A    between atoms: _190  and  _192
REMARK   83  A    between atoms: _192  and  _193
REMARK   84  A    between atoms: _192  and  _195
REMARK   85  A    between atoms: _198  and  _200
REMARK   86  A    between atoms: _200  and  _201
REMARK   87  A    between atoms: _200  and  _203
REMARK   88  A    between atoms: _203  and  _204
REMARK   89  A    between atoms: _207  and  _209
REMARK   90  A    between atoms: _209  and  _210
REMARK   91  A    between atoms: _209  and  _212
REMARK   92  A    between atoms: _212  and  _213
REMARK   93  A    between atoms: _217  and  _218
REMARK   94  A    between atoms: _223  and  _225
REMARK   95  A    between atoms: _225  and  _226
REMARK   96  A    between atoms: _225  and  _228
REMARK   97  A    between atoms: _231  and  _233
REMARK   98  A    between atoms: _233  and  _234
REMARK   99  A    between atoms: _233  and  _236
REMARK  100  A    between atoms: _236  and  _237
REMARK  101  A    between atoms: _242  and  _244
REMARK  102  A    between atoms: _244  and  _245
REMARK  103  A    between atoms: _244  and  _247
REMARK  104  A    between atoms: _247  and  _248
REMARK  105  A    between atoms: _251  and  _253
REMARK  106  A    between atoms: _253  and  _254
REMARK  107  A    between atoms: _253  and  _256
REMARK  108  A    between atoms: _256  and  _257
REMARK  109  A    between atoms: _260  and  _262
REMARK  110  A    between atoms: _262  and  _263
REMARK  111  A    between atoms: _265  and  _267
REMARK  112  A    between atoms: _267  and  _268
REMARK  113  A    between atoms: _267  and  _270
REMARK  114  A    between atoms: _270  and  _271
REMARK  115  A    between atoms: _271  and  _272
REMARK  116  A    between atoms: _272  and  _273
REMARK  117  A    between atoms: _282  and  _284
REMARK  118  A    between atoms: _284  and  _285
REMARK  119  A    between atoms: _284  and  _287
REMARK  120  A    between atoms: _287  and  _288
REMARK  121  A    between atoms: _288  and  _289
REMARK  122  A    between atoms: _289  and  _290
REMARK  123  A    between atoms: _299  and  _301
REMARK  124  A    between atoms: _301  and  _302
REMARK  125  A    between atoms: _301  and  _304
REMARK  126  A    between atoms: _304  and  _305
REMARK  127  A    between atoms: _308  and  _310
REMARK  128  A    between atoms: _310  and  _311
REMARK  129  A    between atoms: _310  and  _313
REMARK  130  A    between atoms: _313  and  _314
REMARK  131  A    between atoms: _317  and  _319
REMARK  132  A    between atoms: _319  and  _320
REMARK  133  A    between atoms: _319  and  _322
REMARK  134  A    between atoms: _322  and  _323
REMARK  135  A    between atoms: _326  and  _328
REMARK  136  A    between atoms: _328  and  _329
REMARK  137  A    between atoms: _328  and  _331
REMARK  138  A    between atoms: _331  and  _332
REMARK  139  A    between atoms: _335  and  _337
REMARK  140  A    between atoms: _337  and  _338
REMARK  141  A    between atoms: _340  and  _342
REMARK  142  A    between atoms: _342  and  _343
REMARK  143  A    between atoms: _346  and  _348
REMARK  144  A    between atoms: _348  and  _349
REMARK  145  A    between atoms: _348  and  _351
REMARK  146  A    between atoms: _351  and  _352
REMARK  147  A    between atoms: _355  and  _357
REMARK  148  A    between atoms: _357  and  _358
REMARK  149  A    between atoms: _357  and  _360
REMARK  150  A    between atoms: _360  and  _361
REMARK  151  A    between atoms: _364  and  _366
REMARK  152  A    between atoms: _366  and  _367
REMARK  153  A    between atoms: _366  and  _369
REMARK  154  A    between atoms: _369  and  _370
REMARK  155  A    between atoms: _373  and  _375
REMARK  156  A    between atoms: _375  and  _376
REMARK  157  A    between atoms: _375  and  _378
REMARK  158  A    between atoms: _381  and  _383
REMARK  159  A    between atoms: _383  and  _384
REMARK  160  A    between atoms: _383  and  _386
REMARK  161  A    between atoms: _386  and  _387
REMARK  162  A    between atoms: _390  and  _392
REMARK  163  A    between atoms: _392  and  _393
REMARK  164  A    between atoms: _392  and  _395
REMARK  165  A    between atoms: _395  and  _396
REMARK  166  A    between atoms: _396  and  _397
REMARK  167  A    between atoms: _397  and  _398
REMARK  168  A    between atoms: _398  and  _399
REMARK  169  A    between atoms: _403  and  _405
REMARK  170  A    between atoms: _405  and  _406
REMARK  171  A    between atoms: _405  and  _408
REMARK  172  A    between atoms: _408  and  _409
REMARK  173  A    between atoms: _409  and  _410
REMARK  174  A    between atoms: _412  and  _414
REMARK  175  A    between atoms: _414  and  _415
REMARK  176  A    between atoms: _414  and  _417
REMARK  177  A    between atoms: _417  and  _418
REMARK  178  A    between atoms: _421  and  _423
REMARK  179  A    between atoms: _423  and  _424
REMARK  180  A    between atoms: _426  and  _428
REMARK  181  A    between atoms: _428  and  _429
REMARK  182  A    between atoms: _431  and  _433
REMARK  183  A    between atoms: _433  and  _434
REMARK  184  A    between atoms: _433  and  _436
REMARK  185  A    between atoms: _436  and  _437
REMARK  186  A    between atoms: _440  and  _442
REMARK  187  A    between atoms: _442  and  _443
REMARK  188  A    between atoms: _445  and  _447
REMARK  189  A    between atoms: _447  and  _448
REMARK  190  A    between atoms: _450  and  _452
REMARK  191  A    between atoms: _452  and  _453
REMARK  192  A    between atoms: _452  and  _455
REMARK  193  A    between atoms: _455  and  _456
REMARK  194  A    between atoms: _462  and  _464
REMARK  195  A    between atoms: _464  and  _465
REMARK  196  A    between atoms: _464  and  _467
REMARK  197  A    between atoms: _467  and  _468
REMARK  198  A    between atoms: _471  and  _473
REMARK  199  A    between atoms: _473  and  _474
REMARK  200  A    between atoms: _473  and  _476
REMARK  201  A    between atoms: _479  and  _481
REMARK  202  A    between atoms: _481  and  _482
REMARK  203  A    between atoms: _481  and  _484
REMARK  204  A    between atoms: _484  and  _485
REMARK  205  A    between atoms: _488  and  _490
REMARK  206  A    between atoms: _490  and  _491
REMARK  207  A    between atoms: _490  and  _493
REMARK  208  A    between atoms: _493  and  _494
REMARK  209  A    between atoms: _498  and  _499
REMARK  210  A    between atoms: _504  and  _506
REMARK  211  A    between atoms: _506  and  _507
REMARK  212  A    between atoms: _506  and  _509
REMARK  213  A    between atoms: _512  and  _514
REMARK  214  A    between atoms: _514  and  _515
REMARK  215  A    between atoms: _514  and  _517
REMARK  216  A    between atoms: _517  and  _518
REMARK  217  A    between atoms: _523  and  _525
REMARK  218  A    between atoms: _525  and  _526
REMARK  219  A    between atoms: _525  and  _528
REMARK  220  A    between atoms: _528  and  _529
REMARK  221  A    between atoms: _532  and  _534
REMARK  222  A    between atoms: _534  and  _535
REMARK  223  A    between atoms: _534  and  _537
REMARK  224  A    between atoms: _537  and  _538
REMARK  225  A    between atoms: _541  and  _543
REMARK  226  A    between atoms: _543  and  _544
REMARK  227  A    between atoms: _546  and  _548
REMARK  228  A    between atoms: _548  and  _549
REMARK  229  A    between atoms: _548  and  _551
REMARK  230  A    between atoms: _551  and  _552
REMARK  231  A    between atoms: _552  and  _553
REMARK  232  A    between atoms: _553  and  _554
REMARK  233  A    between atoms: _563  and  _565
REMARK  234  A    between atoms: _565  and  _566
REMARK  235  A    between atoms: _565  and  _568
REMARK  236  A    between atoms: _568  and  _569
REMARK                            x       y       z     vdW  Elec       q    Type
REMARK                         _______ _______ _______ _____ _____    ______ ____
ROOT
ATOM      1  CA  ILE A   5      16.110  28.016  11.939  0.00  0.00    +0.149 C 
ENDROOT
BRANCH   1   3
ATOM      2  C   ASN A   4      17.342  26.953  13.759  0.00  0.00    +0.241 C 
ATOM      3  N   ILE A   5      16.228  27.517  13.305  0.00  0.00    -0.297 N 
ATOM      4  H   ILE A   5      15.413  27.606  13.945  0.00  0.00    +0.150 HD
ATOM      5  O   ASN A   4      18.364  26.840  13.084  0.00  0.00    -0.273 OA
BRANCH   2   6
ATOM      6  CA  ASN A   4      17.306  26.443  15.193  0.00  0.00    +0.158 C 
BRANCH   6   8
ATOM      7  C   VAL A   3      17.005  24.090  14.681  0.00  0.00    +0.241 C 
ATOM      8  N   ASN A   4      17.773  25.061  15.168  0.00  0.00    -0.297 N 
ATOM      9  H   ASN A   4      18.719  24.832  15.536  0.00  0.00    +0.150 HD
ATOM     10  O   VAL A   3      15.864  24.288  14.270  0.00  0.00    -0.273 OA
BRANCH   7  11
ATOM     11  CA  VAL A   3      17.599  22.683  14.663  0.00  0.00    +0.149 C 
BRANCH  11  14
ATOM     12  C   PRO A   2      16.698  20.498  15.263  0.00  0.00    +0.241 C 
ATOM     13  O   PRO A   2      17.751  20.164  15.809  0.00  0.00    -0.273 OA
ATOM     14  N   VAL A   3      16.531  21.686  14.686  0.00  0.00    -0.297 N 
ATOM     15  H   VAL A   3      15.618  21.910  14.241  0.00  0.00    +0.150 HD
BRANCH  12  19
ATOM     16  C   THR A   1      13.712  21.026  15.972  0.00  0.00    +0.244 C 
ATOM     17  O   THR A   1      14.314  21.258  17.020  0.00  0.00    -0.273 OA
ATOM     18  N   PRO A   2      14.209  20.202  15.039  0.00  0.00    -0.272 N 
ATOM     19  CA  PRO A   2      15.506  19.544  15.228  0.00  0.00    +0.152 C 
ATOM     20  CB  PRO A   2      15.567  18.562  14.056  0.00  0.00    +0.031 C 
ATOM     21  CG  PRO A   2      14.759  19.240  13.006  0.00  0.00    +0.024 C 
ATOM     22  CD  PRO A   2      13.582  19.786  13.774  0.00  0.00    +0.094 C 
BRANCH  16  23
ATOM     23  CA  THR A   1      12.355  21.667  15.695  0.00  0.00    +0.172 C 
BRANCH  23  24
ATOM     24  CB  THR A   1      12.573  23.088  15.142  0.00  0.00    +0.135 C 
ATOM     25  CG2 THR A   1      13.182  23.990  16.205  0.00  0.00    +0.034 C 
BRANCH  24  26
ATOM     26  OG1 THR A   1      13.449  23.025  14.012  0.00  0.00    -0.383 OA
ATOM     27  HG1 THR A   1      14.317  22.640  14.290  0.00  0.00    +0.210 HD
ENDBRANCH  24  26
ENDBRANCH  23  24
BRANCH  23  28
ATOM     28  N   THR A   1      11.619  21.681  16.950  0.00  0.00    -0.236 NA
ATOM     29  H   THR A   1      11.686  22.506  17.580  0.00  0.00    +0.142 HD
ENDBRANCH  23  28
ENDBRANCH  16  23
ENDBRANCH  12  19
ENDBRANCH  11  14
BRANCH  11  30
ATOM     30  CB  VAL A   3      18.462  22.545  13.389  0.00  0.00    +0.027 C 
ATOM     31  CG2 VAL A   3      19.708  23.411  13.495  0.00  0.00    +0.002 C 
ATOM     32  CG1 VAL A   3      17.657  22.950  12.185  0.00  0.00    +0.002 C 
ENDBRANCH  11  30
ENDBRANCH   7  11
ENDBRANCH   6   8
BRANCH   6  33
ATOM     33  CB  ASN A   4      18.205  27.312  16.071  0.00  0.00    +0.114 C 
BRANCH  33  34
ATOM     34  CG  ASN A   4      18.126  26.934  17.534  0.00  0.00    +0.222 C 
ATOM     35  ND2 ASN A   4      19.268  26.958  18.218  0.00  0.00    -0.329 N 
ATOM     36 HD21 ASN A   4      19.273  26.717  19.230  0.00  0.00    +0.145 HD
ATOM     37 HD22 ASN A   4      20.155  27.217  17.741  0.00  0.00    +0.145 HD
ATOM     38  OD1 ASN A   4      17.047  26.634  18.049  0.00  0.00    -0.275 OA
ENDBRANCH  33  34
ENDBRANCH   6  33
ENDBRANCH   2   6
ENDBRANCH   1   3
BRANCH   1  39
ATOM     39  C   ILE A   5      15.752  29.497  11.855  0.00  0.00    +0.241 C 
ATOM     40  O   ILE A   5      14.775  29.938  12.459  0.00  0.00    -0.273 OA
ATOM     41  N   ILE A   6      16.551  30.260  11.111  0.00  0.00    -0.297 N 
ATOM     42  H   ILE A   6      17.392  29.835  10.671  0.00  0.00    +0.150 HD
BRANCH  41  43
ATOM     43  CA  ILE A   6      16.276  31.677  10.897  0.00  0.00    +0.149 C 
BRANCH  43  44
ATOM     44  C   ILE A   6      15.607  31.760   9.527  0.00  0.00    +0.241 C 
ATOM     45  N   GLY A   7      14.320  32.098   9.525  0.00  0.00    -0.295 N 
ATOM     46  H   GLY A   7      13.845  32.305  10.427  0.00  0.00    +0.150 HD
ATOM     47  O   ILE A   6      16.249  31.517   8.498  0.00  0.00    -0.273 OA
BRANCH  45  48
ATOM     48  CA  GLY A   7      13.568  32.183   8.286  0.00  0.00    +0.176 C 
BRANCH  48  49
ATOM     49  C   GLY A   7      13.571  33.543   7.622  0.00  0.00    +0.243 C 
ATOM     50  O   GLY A   7      14.155  34.501   8.132  0.00  0.00    -0.273 OA
ATOM     51  N   ARG A   8      12.887  33.626   6.486  0.00  0.00    -0.298 N 
ATOM     52  H   ARG A   8      12.385  32.784   6.140  0.00  0.00    +0.150 HD
BRANCH  51  53
ATOM     53  CA  ARG A   8      12.816  34.856   5.708  0.00  0.00    +0.137 C 
BRANCH  53  54
ATOM     54  C   ARG A   8      12.265  36.060   6.455  0.00  0.00    +0.227 C 
ATOM     55  O   ARG A   8      12.654  37.188   6.160  0.00  0.00    -0.286 OA
ENDBRANCH  53  54
BRANCH  53  56
ATOM     56  CB  ARG A   8      11.981  34.634   4.436  0.00  0.00    +0.031 C 
BRANCH  56  57
ATOM     57  CG  ARG A   8      12.596  33.645   3.451  0.00  0.00    +0.045 C 
BRANCH  57  58
ATOM     58  CD  ARG A   8      11.823  33.570   2.128  0.00  0.00    +0.174 C 
BRANCH  58  59
ATOM     59  NE  ARG A   8      10.446  33.107   2.300  0.00  0.00    -0.265 N 
ATOM     60  CZ  ARG A   8       9.383  33.905   2.378  0.00  0.00    +0.342 C 
ATOM     61  NH2 ARG A   8       8.173  33.383   2.544  0.00  0.00    -0.292 N 
ATOM     62 HH21 ARG A   8       8.056  32.352   2.613  0.00  0.00    +0.255 HD
ATOM     63 HH22 ARG A   8       7.342  34.005   2.605  0.00  0.00    +0.255 HD
ATOM     64  NH1 ARG A   8       9.524  35.223   2.295  0.00  0.00    -0.292 N 
ATOM     65 HH11 ARG A   8       8.689  35.840   2.357  0.00  0.00    +0.255 HD
ATOM     66 HH12 ARG A   8      10.469  35.638   2.168  0.00  0.00    +0.255 HD
ATOM     67  HE  ARG A   8      10.286  32.082   2.366  0.00  0.00    +0.259 HD
ENDBRANCH  58  59
ENDBRANCH  57  58
ENDBRANCH  56  57
ENDBRANCH  53  56
ENDBRANCH  51  53
ENDBRANCH  48  49
ENDBRANCH  45  48
ENDBRANCH  43  44
BRANCH  43  68
ATOM     68  CB  ILE A   6      17.558  32.529  10.863  0.00  0.00    +0.027 C 
ATOM     69  CG2 ILE A   6      17.204  33.987  10.567  0.00  0.00    +0.002 C 
BRANCH  68  70
ATOM     70  CG1 ILE A   6      18.307  32.404  12.190  0.00  0.00    +0.002 C 
ATOM     71  CD1 ILE A   6      17.463  32.707  13.427  0.00  0.00    +0.000 C 
ENDBRANCH  68  70
ENDBRANCH  43  68
ENDBRANCH  41  43
ENDBRANCH   1  39
BRANCH   1  72
ATOM     72  CB  ILE A   5      15.016  27.222  11.173  0.00  0.00    +0.027 C 
ATOM     73  CG2 ILE A   5      14.775  27.835   9.795  0.00  0.00    +0.002 C 
BRANCH  72  74
ATOM     74  CG1 ILE A   5      15.413  25.747  11.075  0.00  0.00    +0.002 C 
ATOM     75  CD1 ILE A   5      14.266  24.836  10.667  0.00  0.00    +0.000 C 
ENDBRANCH  72  74
ENDBRANCH   1  72
TORSDOF 28
REMARK  Name = ../refined-set-2016/2cen/2cen_pocket.pdb
REMARK  236 active torsions:
REMARK  status: ('A' for Active; 'I' for Inactive)
REMARK    1  A    between atoms: _1  and  _3
REMARK    2  A    between atoms: _3  and  _4
REMARK    3  A    between atoms: _3  and  _6
REMARK    4  A    between atoms: _6  and  _7
REMARK    5  A    between atoms: _7  and  _8
REMARK    6  A    between atoms: _8  and  _9
REMARK    7  A    between atoms: _18  and  _20
REMARK    8  A    between atoms: _20  and  _21
REMARK    9  A    between atoms: _20  and  _23
REMARK   10  A    between atoms: _23  and  _24
REMARK   11  A    between atoms: _27  and  _29
REMARK   12  A    between atoms: _29  and  _30
REMARK   13  A    between atoms: _29  and  _32
REMARK   14  A    between atoms: _32  and  _33
REMARK   15  A    between atoms: _36  and  _38
REMARK   16  A    between atoms: _38  and  _39
REMARK   17  A    between atoms: _38  and  _41
REMARK   18  A    between atoms: _41  and  _42
REMARK   19  A    between atoms: _45  and  _47
REMARK   20  A    between atoms: _47  and  _48
REMARK   21  A    between atoms: _47  and  _50
REMARK   22  A    between atoms: _50  and  _51
REMARK   23  A    between atoms: _54  and  _56
REMARK   24  A    between atoms: _56  and  _57
REMARK   25  A    between atoms: _56  and  _59
REMARK   26  A    between atoms: _59  and  _60
REMARK   27  A    between atoms: _63  and  _65
REMARK   28  A    between atoms: _65  and  _66
REMARK   29  A    between atoms: _68  and  _70
REMARK   30  A    between atoms: _70  and  _71
REMARK   31  A    between atoms: _74  and  _76
REMARK   32  A    between atoms: _76  and  _77
REMARK   33  A    between atoms: _76  and  _79
REMARK   34  A    between atoms: _79  and  _80
REMARK   35  A    between atoms: _83  and  _85
REMARK   36  A    between atoms: _85  and  _86
REMARK   37  A    between atoms: _85  and  _88
REMARK   38  A    between atoms: _88  and  _89
REMARK   39  A    between atoms: _92  and  _94
REMARK   40  A    between atoms: _94  and  _95
REMARK   41  A    between atoms: _94  and  _97
REMARK   42  A    between atoms: _97  and  _98
REMARK   43  A    between atoms: _101  and  _103
REMARK   44  A    between atoms: _103  and  _104
REMARK   45  A    between atoms: _103  and  _106
REMARK   46  A    between atoms: _109  and  _111
REMARK   47  A    between atoms: _111  and  _112
REMARK   48  A    between atoms: _111  and  _114
REMARK   49  A    between atoms: _114  and  _115
REMARK   50  A    between atoms: _115  and  _116
REMARK   51  A    between atoms: _116  and  _117
REMARK   52  A    between atoms: _117  and  _118
REMARK   53  A    between atoms: _122  and  _124
REMARK   54  A    between atoms: _124  and  _125
REMARK   55  A    between atoms: _124  and  _127
REMARK   56  A    between atoms: _127  and  _128
REMARK   57  A    between atoms: _128  and  _129
REMARK   58  A    between atoms: _131  and  _133
REMARK   59  A    between atoms: _133  and  _134
REMARK   60  A    between atoms: _133  and  _136
REMARK   61  A    between atoms: _136  and  _137
REMARK   62  A    between atoms: _140  and  _142
REMARK   63  A    between atoms: _142  and  _143
REMARK   64  A    between atoms: _145  and  _147
REMARK   65  A    between atoms: _147  and  _148
REMARK   66  A    between atoms: _150  and  _152
REMARK   67  A    between atoms: _152  and  _153
REMARK   68  A    between atoms: _152  and  _155
REMARK   69  A    between atoms: _155  and  _156
REMARK   70  A    between atoms: _159  and  _161
REMARK   71  A    between atoms: _161  and  _162
REMARK   72  A    between atoms: _164  and  _166
REMARK   73  A    between atoms: _166  and  _167
REMARK   74  A    between atoms: _169  and  _171
REMARK   75  A    between atoms: _171  and  _172
REMARK   76  A    between atoms: _171  and  _174
REMARK   77  A    between atoms: _174  and  _175
REMARK   78  A    between atoms: _181  and  _183
REMARK   79  A    between atoms: _183  and  _184
REMARK   80  A    between atoms: _183  and  _186
REMARK   81  A    between atoms: _186  and  _187
REMARK   82  A    between atoms: _190  and  _192
REMARK   83  A    between atoms: _192  and  _193
REMARK   84  A    between atoms: _192  and  _195
REMARK   85  A    between atoms: _198  and  _200
REMARK   86  A    between atoms: _200  and  _201
REMARK   87  A    between atoms: _200  and  _203
REMARK   88  A    between atoms: _203  and  _204
REMARK   89  A    between atoms: _207  and  _209
REMARK   90  A    between atoms: _209  and  _210
REMARK   91  A    between atoms: _209  and  _212
REMARK   92  A    between atoms: _212  and  _213
REMARK   93  A    between atoms: _217  and  _218
REMARK   94  A    between atoms: _223  and  _225
REMARK   95  A    between atoms: _225  and  _226
REMARK   96  A    between atoms: _225  and  _228
REMARK   97  A    between atoms: _231  and  _233
REMARK   98  A    between atoms: _233  and  _234
REMARK   99  A    between atoms: _233  and  _236
REMARK  100  A    between atoms: _236  and  _237
REMARK  101  A    between atoms: _242  and  _244
REMARK  102  A    between atoms: _244  and  _245
REMARK  103  A    between atoms: _244  and  _247
REMARK  104  A    between atoms: _247  and  _248
REMARK  105  A    between atoms: _251  and  _253
REMARK  106  A    between atoms: _253  and  _254
REMARK  107  A    between atoms: _253  and  _256
REMARK  108  A    between atoms: _256  and  _257
REMARK  109  A    between atoms: _260  and  _262
REMARK  110  A    between atoms: _262  and  _263
REMARK  111  A    between atoms: _265  and  _267
REMARK  112  A    between atoms: _267  and  _268
REMARK  113  A    between atoms: _267  and  _270
REMARK  114  A    between atoms: _270  and  _271
REMARK  115  A    between atoms: _271  and  _272
REMARK  116  A    between atoms: _272  and  _273
REMARK  117  A    between atoms: _282  and  _284
REMARK  118  A    between atoms: _284  and  _285
REMARK  119  A    between atoms: _284  and  _287
REMARK  120  A    between atoms: _287  and  _288
REMARK  121  A    between atoms: _288  and  _289
REMARK  122  A    between atoms: _289  and  _290
REMARK  123  A    between atoms: _299  and  _301
REMARK  124  A    between atoms: _301  and  _302
REMARK  125  A    between atoms: _301  and  _304
REMARK  126  A    between atoms: _304  and  _305
REMARK  127  A    between atoms: _308  and  _310
REMARK  128  A    between atoms: _310  and  _311
REMARK  129  A    between atoms: _310  and  _313
REMARK  130  A    between atoms: _313  and  _314
REMARK  131  A    between atoms: _317  and  _319
REMARK  132  A    between atoms: _319  and  _320
REMARK  133  A    between atoms: _319  and  _322
REMARK  134  A    between atoms: _322  and  _323
REMARK  135  A    between atoms: _326  and  _328
REMARK  136  A    between atoms: _328  and  _329
REMARK  137  A    between atoms: _328  and  _331
REMARK  138  A    between atoms: _331  and  _332
REMARK  139  A    between atoms: _335  and  _337
REMARK  140  A    between atoms: _337  and  _338
REMARK  141  A    between atoms: _340  and  _342
REMARK  142  A    between atoms: _342  and  _343
REMARK  143  A    between atoms: _346  and  _348
REMARK  144  A    between atoms: _348  and  _349
REMARK  145  A    between atoms: _348  and  _351
REMARK  146  A    between atoms: _351  and  _352
REMARK  147  A    between atoms: _355  and  _357
REMARK  148  A    between atoms: _357  and  _358
REMARK  149  A    between atoms: _357  and  _360
REMARK  150  A    between atoms: _360  and  _361
REMARK  151  A    between atoms: _364  and  _366
REMARK  152  A    between atoms: _366  and  _367
REMARK  153  A    between atoms: _366  and  _369
REMARK  154  A    between atoms: _369  and  _370
REMARK  155  A    between atoms: _373  and  _375
REMARK  156  A    between atoms: _375  and  _376
REMARK  157  A    between atoms: _375  and  _378
REMARK  158  A    between atoms: _381  and  _383
REMARK  159  A    between atoms: _383  and  _384
REMARK  160  A    between atoms: _383  and  _386
REMARK  161  A    between atoms: _386  and  _387
REMARK  162  A    between atoms: _390  and  _392
REMARK  163  A    between atoms: _392  and  _393
REMARK  164  A    between atoms: _392  and  _395
REMARK  165  A    between atoms: _395  and  _396
REMARK  166  A    between atoms: _396  and  _397
REMARK  167  A    between atoms: _397  and  _398
REMARK  168  A    between atoms: _398  and  _399
REMARK  169  A    between atoms: _403  and  _405
REMARK  170  A    between atoms: _405  and  _406
REMARK  171  A    between atoms: _405  and  _408
REMARK  172  A    between atoms: _408  and  _409
REMARK  173  A    between atoms: _409  and  _410
REMARK  174  A    between atoms: _412  and  _414
REMARK  175  A    between atoms: _414  and  _415
REMARK  176  A    between atoms: _414  and  _417
REMARK  177  A    between atoms: _417  and  _418
REMARK  178  A    between atoms: _421  and  _423
REMARK  179  A    between atoms: _423  and  _424
REMARK  180  A    between atoms: _426  and  _428
REMARK  181  A    between atoms: _428  and  _429
REMARK  182  A    between atoms: _431  and  _433
REMARK  183  A    between atoms: _433  and  _434
REMARK  184  A    between atoms: _433  and  _436
REMARK  185  A    between atoms: _436  and  _437
REMARK  186  A    between atoms: _440  and  _442
REMARK  187  A    between atoms: _442  and  _443
REMARK  188  A    between atoms: _445  and  _447
REMARK  189  A    between atoms: _447  and  _448
REMARK  190  A    between atoms: _450  and  _452
REMARK  191  A    between atoms: _452  and  _453
REMARK  192  A    between atoms: _452  and  _455
REMARK  193  A    between atoms: _455  and  _456
REMARK  194  A    between atoms: _462  and  _464
REMARK  195  A    between atoms: _464  and  _465
REMARK  196  A    between atoms: _464  and  _467
REMARK  197  A    between atoms: _467  and  _468
REMARK  198  A    between atoms: _471  and  _473
REMARK  199  A    between atoms: _473  and  _474
REMARK  200  A    between atoms: _473  and  _476
REMARK  201  A    between atoms: _479  and  _481
REMARK  202  A    between atoms: _481  and  _482
REMARK  203  A    between atoms: _481  and  _484
REMARK  204  A    between atoms: _484  and  _485
REMARK  205  A    between atoms: _488  and  _490
REMARK  206  A    between atoms: _490  and  _491
REMARK  207  A    between atoms: _490  and  _493
REMARK  208  A    between atoms: _493  and  _494
REMARK  209  A    between atoms: _498  and  _499
REMARK  210  A    between atoms: _504  and  _506
REMARK  211  A    between atoms: _506  and  _507
REMARK  212  A    between atoms: _506  and  _509
REMARK  213  A    between atoms: _512  and  _514
REMARK  214  A    between atoms: _514  and  _515
REMARK  215  A    between atoms: _514  and  _517
REMARK  216  A    between atoms: _517  and  _518
REMARK  217  A    between atoms: _523  and  _525
REMARK  218  A    between atoms: _525  and  _526
REMARK  219  A    between atoms: _525  and  _528
REMARK  220  A    between atoms: _528  and  _529
REMARK  221  A    between atoms: _532  and  _534
REMARK  222  A    between atoms: _534  and  _535
REMARK  223  A    between atoms: _534  and  _537
REMARK  224  A    between atoms: _537  and  _538
REMARK  225  A    between atoms: _541  and  _543
REMARK  226  A    between atoms: _543  and  _544
REMARK  227  A    between atoms: _546  and  _548
REMARK  228  A    between atoms: _548  and  _549
REMARK  229  A    between atoms: _548  and  _551
REMARK  230  A    between atoms: _551  and  _552
REMARK  231  A    between atoms: _552  and  _553
REMARK  232  A    between atoms: _553  and  _554
REMARK  233  A    between atoms: _563  and  _565
REMARK  234  A    between atoms: _565  and  _566
REMARK  235  A    between atoms: _565  and  _568
REMARK  236  A    between atoms: _568  and  _569
REMARK                            x       y       z     vdW  Elec       q    Type
REMARK                         _______ _______ _______ _____ _____    ______ ____
ROOT
ATOM      1  NE  ARG A   1       6.225  29.872   0.781  0.00  0.00    -0.265 N 
ATOM      2  HE  ARG A   1       6.544  30.314   1.667  0.00  0.00    +0.259 HD
ATOM      3  CZ  ARG A   1       5.135  29.111   0.825  0.00  0.00    +0.342 C 
ATOM      4  NH2 ARG A   1       4.486  28.947   1.969  0.00  0.00    -0.292 N 
ATOM      5 HH21 ARG A   1       4.829  29.413   2.833  0.00  0.00    +0.255 HD
ATOM      6 HH22 ARG A   1       3.634  28.352   2.003  0.00  0.00    +0.255 HD
ATOM      7  NH1 ARG A   1       4.688  28.522  -0.277  0.00  0.00    -0.292 N 
ATOM      8 HH11 ARG A   1       3.835  27.928  -0.240  0.00  0.00    +0.255 HD
ATOM      9 HH12 ARG A   1       5.190  28.655  -1.178  0.00  0.00    +0.255 HD
ENDROOT
BRANCH   1  10
ATOM     10  CD  ARG A   1       7.004  30.128  -0.426  0.00  0.00    +0.174 C 
BRANCH  10  11
ATOM     11  CG  ARG A   1       8.000  31.257  -0.208  0.00  0.00    +0.045 C 
BRANCH  11  12
ATOM     12  CB  ARG A   1       8.717  31.615  -1.489  0.00  0.00    +0.029 C 
BRANCH  12  13
ATOM     13  CA  ARG A   1       9.663  32.808  -1.361  0.00  0.00    +0.133 C 
BRANCH  13  14
ATOM     14  N   ARG A   1       8.908  34.053  -1.222  0.00  0.00    -0.239 NA
ATOM     15  H   ARG A   1       7.869  34.033  -1.260  0.00  0.00    +0.142 HD
ENDBRANCH  13  14
BRANCH  13  16
ATOM     16  C   ARG A   1      10.545  32.889  -2.605  0.00  0.00    +0.224 C 
ATOM     17  O   ARG A   1      10.094  33.320  -3.666  0.00  0.00    -0.287 OA
ENDBRANCH  13  16
ENDBRANCH  12  13
ENDBRANCH  11  12
ENDBRANCH  10  11
ENDBRANCH   1  10
TORSDOF 6
REMARK  Name = ../refined-set-2016/2cen/2cen_pocket.pdb
REMARK  236 active torsions:
REMARK  status: ('A' for Active; 'I' for Inactive)
REMARK    1  A    between atoms: _1  and  _3
REMARK    2  A    between atoms: _3  and  _4
REMARK    3  A    between atoms: _3  and  _6
REMARK    4  A    between atoms: _6  and  _7
REMARK    5  A    between atoms: _7  and  _8
REMARK    6  A    between atoms: _8  and  _9
REMARK    7  A    between atoms: _18  and  _20
REMARK    8  A    between atoms: _20  and  _21
REMARK    9  A    between atoms: _20  and  _23
REMARK   10  A    between atoms: _23  and  _24
REMARK   11  A    between atoms: _27  and  _29
REMARK   12  A    between atoms: _29  and  _30
REMARK   13  A    between atoms: _29  and  _32
REMARK   14  A    between atoms: _32  and  _33
REMARK   15  A    between atoms: _36  and  _38
REMARK   16  A    between atoms: _38  and  _39
REMARK   17  A    between atoms: _38  and  _41
REMARK   18  A    between atoms: _41  and  _42
REMARK   19  A    between atoms: _45  and  _47
REMARK   20  A    between atoms: _47  and  _48
REMARK   21  A    between atoms: _47  and  _50
REMARK   22  A    between atoms: _50  and  _51
REMARK   23  A    between atoms: _54  and  _56
REMARK   24  A    between atoms: _56  and  _57
REMARK   25  A    between atoms: _56  and  _59
REMARK   26  A    between atoms: _59  and  _60
REMARK   27  A    between atoms: _63  and  _65
REMARK   28  A    between atoms: _65  and  _66
REMARK   29  A    between atoms: _68  and  _70
REMARK   30  A    between atoms: _70  and  _71
REMARK   31  A    between atoms: _74  and  _76
REMARK   32  A    between atoms: _76  and  _77
REMARK   33  A    between atoms: _76  and  _79
REMARK   34  A    between atoms: _79  and  _80
REMARK   35  A    between atoms: _83  and  _85
REMARK   36  A    between atoms: _85  and  _86
REMARK   37  A    between atoms: _85  and  _88
REMARK   38  A    between atoms: _88  and  _89
REMARK   39  A    between atoms: _92  and  _94
REMARK   40  A    between atoms: _94  and  _95
REMARK   41  A    between atoms: _94  and  _97
REMARK   42  A    between atoms: _97  and  _98
REMARK   43  A    between atoms: _101  and  _103
REMARK   44  A    between atoms: _103  and  _104
REMARK   45  A    between atoms: _103  and  _106
REMARK   46  A    between atoms: _109  and  _111
REMARK   47  A    between atoms: _111  and  _112
REMARK   48  A    between atoms: _111  and  _114
REMARK   49  A    between atoms: _114  and  _115
REMARK   50  A    between atoms: _115  and  _116
REMARK   51  A    between atoms: _116  and  _117
REMARK   52  A    between atoms: _117  and  _118
REMARK   53  A    between atoms: _122  and  _124
REMARK   54  A    between atoms: _124  and  _125
REMARK   55  A    between atoms: _124  and  _127
REMARK   56  A    between atoms: _127  and  _128
REMARK   57  A    between atoms: _128  and  _129
REMARK   58  A    between atoms: _131  and  _133
REMARK   59  A    between atoms: _133  and  _134
REMARK   60  A    between atoms: _133  and  _136
REMARK   61  A    between atoms: _136  and  _137
REMARK   62  A    between atoms: _140  and  _142
REMARK   63  A    between atoms: _142  and  _143
REMARK   64  A    between atoms: _145  and  _147
REMARK   65  A    between atoms: _147  and  _148
REMARK   66  A    between atoms: _150  and  _152
REMARK   67  A    between atoms: _152  and  _153
REMARK   68  A    between atoms: _152  and  _155
REMARK   69  A    between atoms: _155  and  _156
REMARK   70  A    between atoms: _159  and  _161
REMARK   71  A    between atoms: _161  and  _162
REMARK   72  A    between atoms: _164  and  _166
REMARK   73  A    between atoms: _166  and  _167
REMARK   74  A    between atoms: _169  and  _171
REMARK   75  A    between atoms: _171  and  _172
REMARK   76  A    between atoms: _171  and  _174
REMARK   77  A    between atoms: _174  and  _175
REMARK   78  A    between atoms: _181  and  _183
REMARK   79  A    between atoms: _183  and  _184
REMARK   80  A    between atoms: _183  and  _186
REMARK   81  A    between atoms: _186  and  _187
REMARK   82  A    between atoms: _190  and  _192
REMARK   83  A    between atoms: _192  and  _193
REMARK   84  A    between atoms: _192  and  _195
REMARK   85  A    between atoms: _198  and  _200
REMARK   86  A    between atoms: _200  and  _201
REMARK   87  A    between atoms: _200  and  _203
REMARK   88  A    between atoms: _203  and  _204
REMARK   89  A    between atoms: _207  and  _209
REMARK   90  A    between atoms: _209  and  _210
REMARK   91  A    between atoms: _209  and  _212
REMARK   92  A    between atoms: _212  and  _213
REMARK   93  A    between atoms: _217  and  _218
REMARK   94  A    between atoms: _223  and  _225
REMARK   95  A    between atoms: _225  and  _226
REMARK   96  A    between atoms: _225  and  _228
REMARK   97  A    between atoms: _231  and  _233
REMARK   98  A    between atoms: _233  and  _234
REMARK   99  A    between atoms: _233  and  _236
REMARK  100  A    between atoms: _236  and  _237
REMARK  101  A    between atoms: _242  and  _244
REMARK  102  A    between atoms: _244  and  _245
REMARK  103  A    between atoms: _244  and  _247
REMARK  104  A    between atoms: _247  and  _248
REMARK  105  A    between atoms: _251  and  _253
REMARK  106  A    between atoms: _253  and  _254
REMARK  107  A    between atoms: _253  and  _256
REMARK  108  A    between atoms: _256  and  _257
REMARK  109  A    between atoms: _260  and  _262
REMARK  110  A    between atoms: _262  and  _263
REMARK  111  A    between atoms: _265  and  _267
REMARK  112  A    between atoms: _267  and  _268
REMARK  113  A    between atoms: _267  and  _270
REMARK  114  A    between atoms: _270  and  _271
REMARK  115  A    between atoms: _271  and  _272
REMARK  116  A    between atoms: _272  and  _273
REMARK  117  A    between atoms: _282  and  _284
REMARK  118  A    between atoms: _284  and  _285
REMARK  119  A    between atoms: _284  and  _287
REMARK  120  A    between atoms: _287  and  _288
REMARK  121  A    between atoms: _288  and  _289
REMARK  122  A    between atoms: _289  and  _290
REMARK  123  A    between atoms: _299  and  _301
REMARK  124  A    between atoms: _301  and  _302
REMARK  125  A    between atoms: _301  and  _304
REMARK  126  A    between atoms: _304  and  _305
REMARK  127  A    between atoms: _308  and  _310
REMARK  128  A    between atoms: _310  and  _311
REMARK  129  A    between atoms: _310  and  _313
REMARK  130  A    between atoms: _313  and  _314
REMARK  131  A    between atoms: _317  and  _319
REMARK  132  A    between atoms: _319  and  _320
REMARK  133  A    between atoms: _319  and  _322
REMARK  134  A    between atoms: _322  and  _323
REMARK  135  A    between atoms: _326  and  _328
REMARK  136  A    between atoms: _328  and  _329
REMARK  137  A    between atoms: _328  and  _331
REMARK  138  A    between atoms: _331  and  _332
REMARK  139  A    between atoms: _335  and  _337
REMARK  140  A    between atoms: _337  and  _338
REMARK  141  A    between atoms: _340  and  _342
REMARK  142  A    between atoms: _342  and  _343
REMARK  143  A    between atoms: _346  and  _348
REMARK  144  A    between atoms: _348  and  _349
REMARK  145  A    between atoms: _348  and  _351
REMARK  146  A    between atoms: _351  and  _352
REMARK  147  A    between atoms: _355  and  _357
REMARK  148  A    between atoms: _357  and  _358
REMARK  149  A    between atoms: _357  and  _360
REMARK  150  A    between atoms: _360  and  _361
REMARK  151  A    between atoms: _364  and  _366
REMARK  152  A    between atoms: _366  and  _367
REMARK  153  A    between atoms: _366  and  _369
REMARK  154  A    between atoms: _369  and  _370
REMARK  155  A    between atoms: _373  and  _375
REMARK  156  A    between atoms: _375  and  _376
REMARK  157  A    between atoms: _375  and  _378
REMARK  158  A    between atoms: _381  and  _383
REMARK  159  A    between atoms: _383  and  _384
REMARK  160  A    between atoms: _383  and  _386
REMARK  161  A    between atoms: _386  and  _387
REMARK  162  A    between atoms: _390  and  _392
REMARK  163  A    between atoms: _392  and  _393
REMARK  164  A    between atoms: _392  and  _395
REMARK  165  A    between atoms: _395  and  _396
REMARK  166  A    between atoms: _396  and  _397
REMARK  167  A    between atoms: _397  and  _398
REMARK  168  A    between atoms: _398  and  _399
REMARK  169  A    between atoms: _403  and  _405
REMARK  170  A    between atoms: _405  and  _406
REMARK  171  A    between atoms: _405  and  _408
REMARK  172  A    between atoms: _408  and  _409
REMARK  173  A    between atoms: _409  and  _410
REMARK  174  A    between atoms: _412  and  _414
REMARK  175  A    between atoms: _414  and  _415
REMARK  176  A    between atoms: _414  and  _417
REMARK  177  A    between atoms: _417  and  _418
REMARK  178  A    between atoms: _421  and  _423
REMARK  179  A    between atoms: _423  and  _424
REMARK  180  A    between atoms: _426  and  _428
REMARK  181  A    between atoms: _428  and  _429
REMARK  182  A    between atoms: _431  and  _433
REMARK  183  A    between atoms: _433  and  _434
REMARK  184  A    between atoms: _433  and  _436
REMARK  185  A    between atoms: _436  and  _437
REMARK  186  A    between atoms: _440  and  _442
REMARK  187  A    between atoms: _442  and  _443
REMARK  188  A    between atoms: _445  and  _447
REMARK  189  A    between atoms: _447  and  _448
REMARK  190  A    between atoms: _450  and  _452
REMARK  191  A    between atoms: _452  and  _453
REMARK  192  A    between atoms: _452  and  _455
REMARK  193  A    between atoms: _455  and  _456
REMARK  194  A    between atoms: _462  and  _464
REMARK  195  A    between atoms: _464  and  _465
REMARK  196  A    between atoms: _464  and  _467
REMARK  197  A    between atoms: _467  and  _468
REMARK  198  A    between atoms: _471  and  _473
REMARK  199  A    between atoms: _473  and  _474
REMARK  200  A    between atoms: _473  and  _476
REMARK  201  A    between atoms: _479  and  _481
REMARK  202  A    between atoms: _481  and  _482
REMARK  203  A    between atoms: _481  and  _484
REMARK  204  A    between atoms: _484  and  _485
REMARK  205  A    between atoms: _488  and  _490
REMARK  206  A    between atoms: _490  and  _491
REMARK  207  A    between atoms: _490  and  _493
REMARK  208  A    between atoms: _493  and  _494
REMARK  209  A    between atoms: _498  and  _499
REMARK  210  A    between atoms: _504  and  _506
REMARK  211  A    between atoms: _506  and  _507
REMARK  212  A    between atoms: _506  and  _509
REMARK  213  A    between atoms: _512  and  _514
REMARK  214  A    between atoms: _514  and  _515
REMARK  215  A    between atoms: _514  and  _517
REMARK  216  A    between atoms: _517  and  _518
REMARK  217  A    between atoms: _523  and  _525
REMARK  218  A    between atoms: _525  and  _526
REMARK  219  A    between atoms: _525  and  _528
REMARK  220  A    between atoms: _528  and  _529
REMARK  221  A    between atoms: _532  and  _534
REMARK  222  A    between atoms: _534  and  _535
REMARK  223  A    between atoms: _534  and  _537
REMARK  224  A    between atoms: _537  and  _538
REMARK  225  A    between atoms: _541  and  _543
REMARK  226  A    between atoms: _543  and  _544
REMARK  227  A    between atoms: _546  and  _548
REMARK  228  A    between atoms: _548  and  _549
REMARK  229  A    between atoms: _548  and  _551
REMARK  230  A    between atoms: _551  and  _552
REMARK  231  A    between atoms: _552  and  _553
REMARK  232  A    between atoms: _553  and  _554
REMARK  233  A    between atoms: _563  and  _565
REMARK  234  A    between atoms: _565  and  _566
REMARK  235  A    between atoms: _565  and  _568
REMARK  236  A    between atoms: _568  and  _569
REMARK                            x       y       z     vdW  Elec       q    Type
REMARK                         _______ _______ _______ _____ _____    ______ ____
ROOT
ATOM      1  CA  LEU A   1      10.920  30.476  -6.253  0.00  0.00    +0.133 C 
ENDROOT
BRANCH   1   2
ATOM      2  N   LEU A   1      11.328  31.480  -5.286  0.00  0.00    -0.239 NA
ATOM      3  H   LEU A   1      10.716  32.307  -5.132  0.00  0.00    +0.142 HD
ENDBRANCH   1   2
BRANCH   1   4
ATOM      4  C   LEU A   1      11.495  30.847  -7.609  0.00  0.00    +0.224 C 
ATOM      5  O   LEU A   1      11.430  32.006  -8.026  0.00  0.00    -0.287 OA
ENDBRANCH   1   4
BRANCH   1   6
ATOM      6  CB  LEU A   1       9.393  30.410  -6.333  0.00  0.00    +0.025 C 
BRANCH   6   7
ATOM      7  CG  LEU A   1       8.656  29.951  -5.074  0.00  0.00    +0.002 C 
ATOM      8  CD2 LEU A   1       9.005  28.505  -4.773  0.00  0.00    +0.000 C 
ATOM      9  CD1 LEU A   1       7.164  30.107  -5.273  0.00  0.00    +0.000 C 
ENDBRANCH   6   7
ENDBRANCH   1   6
TORSDOF 4
REMARK  Name = ../refined-set-2016/2cen/2cen_pocket.pdb
REMARK  236 active torsions:
REMARK  status: ('A' for Active; 'I' for Inactive)
REMARK    1  A    between atoms: _1  and  _3
REMARK    2  A    between atoms: _3  and  _4
REMARK    3  A    between atoms: _3  and  _6
REMARK    4  A    between atoms: _6  and  _7
REMARK    5  A    between atoms: _7  and  _8
REMARK    6  A    between atoms: _8  and  _9
REMARK    7  A    between atoms: _18  and  _20
REMARK    8  A    between atoms: _20  and  _21
REMARK    9  A    between atoms: _20  and  _23
REMARK   10  A    between atoms: _23  and  _24
REMARK   11  A    between atoms: _27  and  _29
REMARK   12  A    between atoms: _29  and  _30
REMARK   13  A    between atoms: _29  and  _32
REMARK   14  A    between atoms: _32  and  _33
REMARK   15  A    between atoms: _36  and  _38
REMARK   16  A    between atoms: _38  and  _39
REMARK   17  A    between atoms: _38  and  _41
REMARK   18  A    between atoms: _41  and  _42
REMARK   19  A    between atoms: _45  and  _47
REMARK   20  A    between atoms: _47  and  _48
REMARK   21  A    between atoms: _47  and  _50
REMARK   22  A    between atoms: _50  and  _51
REMARK   23  A    between atoms: _54  and  _56
REMARK   24  A    between atoms: _56  and  _57
REMARK   25  A    between atoms: _56  and  _59
REMARK   26  A    between atoms: _59  and  _60
REMARK   27  A    between atoms: _63  and  _65
REMARK   28  A    between atoms: _65  and  _66
REMARK   29  A    between atoms: _68  and  _70
REMARK   30  A    between atoms: _70  and  _71
REMARK   31  A    between atoms: _74  and  _76
REMARK   32  A    between atoms: _76  and  _77
REMARK   33  A    between atoms: _76  and  _79
REMARK   34  A    between atoms: _79  and  _80
REMARK   35  A    between atoms: _83  and  _85
REMARK   36  A    between atoms: _85  and  _86
REMARK   37  A    between atoms: _85  and  _88
REMARK   38  A    between atoms: _88  and  _89
REMARK   39  A    between atoms: _92  and  _94
REMARK   40  A    between atoms: _94  and  _95
REMARK   41  A    between atoms: _94  and  _97
REMARK   42  A    between atoms: _97  and  _98
REMARK   43  A    between atoms: _101  and  _103
REMARK   44  A    between atoms: _103  and  _104
REMARK   45  A    between atoms: _103  and  _106
REMARK   46  A    between atoms: _109  and  _111
REMARK   47  A    between atoms: _111  and  _112
REMARK   48  A    between atoms: _111  and  _114
REMARK   49  A    between atoms: _114  and  _115
REMARK   50  A    between atoms: _115  and  _116
REMARK   51  A    between atoms: _116  and  _117
REMARK   52  A    between atoms: _117  and  _118
REMARK   53  A    between atoms: _122  and  _124
REMARK   54  A    between atoms: _124  and  _125
REMARK   55  A    between atoms: _124  and  _127
REMARK   56  A    between atoms: _127  and  _128
REMARK   57  A    between atoms: _128  and  _129
REMARK   58  A    between atoms: _131  and  _133
REMARK   59  A    between atoms: _133  and  _134
REMARK   60  A    between atoms: _133  and  _136
REMARK   61  A    between atoms: _136  and  _137
REMARK   62  A    between atoms: _140  and  _142
REMARK   63  A    between atoms: _142  and  _143
REMARK   64  A    between atoms: _145  and  _147
REMARK   65  A    between atoms: _147  and  _148
REMARK   66  A    between atoms: _150  and  _152
REMARK   67  A    between atoms: _152  and  _153
REMARK   68  A    between atoms: _152  and  _155
REMARK   69  A    between atoms: _155  and  _156
REMARK   70  A    between atoms: _159  and  _161
REMARK   71  A    between atoms: _161  and  _162
REMARK   72  A    between atoms: _164  and  _166
REMARK   73  A    between atoms: _166  and  _167
REMARK   74  A    between atoms: _169  and  _171
REMARK   75  A    between atoms: _171  and  _172
REMARK   76  A    between atoms: _171  and  _174
REMARK   77  A    between atoms: _174  and  _175
REMARK   78  A    between atoms: _181  and  _183
REMARK   79  A    between atoms: _183  and  _184
REMARK   80  A    between atoms: _183  and  _186
REMARK   81  A    between atoms: _186  and  _187
REMARK   82  A    between atoms: _190  and  _192
REMARK   83  A    between atoms: _192  and  _193
REMARK   84  A    between atoms: _192  and  _195
REMARK   85  A    between atoms: _198  and  _200
REMARK   86  A    between atoms: _200  and  _201
REMARK   87  A    between atoms: _200  and  _203
REMARK   88  A    between atoms: _203  and  _204
REMARK   89  A    between atoms: _207  and  _209
REMARK   90  A    between atoms: _209  and  _210
REMARK   91  A    between atoms: _209  and  _212
REMARK   92  A    between atoms: _212  and  _213
REMARK   93  A    between atoms: _217  and  _218
REMARK   94  A    between atoms: _223  and  _225
REMARK   95  A    between atoms: _225  and  _226
REMARK   96  A    between atoms: _225  and  _228
REMARK   97  A    between atoms: _231  and  _233
REMARK   98  A    between atoms: _233  and  _234
REMARK   99  A    between atoms: _233  and  _236
REMARK  100  A    between atoms: _236  and  _237
REMARK  101  A    between atoms: _242  and  _244
REMARK  102  A    between atoms: _244  and  _245
REMARK  103  A    between atoms: _244  and  _247
REMARK  104  A    between atoms: _247  and  _248
REMARK  105  A    between atoms: _251  and  _253
REMARK  106  A    between atoms: _253  and  _254
REMARK  107  A    between atoms: _253  and  _256
REMARK  108  A    between atoms: _256  and  _257
REMARK  109  A    between atoms: _260  and  _262
REMARK  110  A    between atoms: _262  and  _263
REMARK  111  A    between atoms: _265  and  _267
REMARK  112  A    between atoms: _267  and  _268
REMARK  113  A    between atoms: _267  and  _270
REMARK  114  A    between atoms: _270  and  _271
REMARK  115  A    between atoms: _271  and  _272
REMARK  116  A    between atoms: _272  and  _273
REMARK  117  A    between atoms: _282  and  _284
REMARK  118  A    between atoms: _284  and  _285
REMARK  119  A    between atoms: _284  and  _287
REMARK  120  A    between atoms: _287  and  _288
REMARK  121  A    between atoms: _288  and  _289
REMARK  122  A    between atoms: _289  and  _290
REMARK  123  A    between atoms: _299  and  _301
REMARK  124  A    between atoms: _301  and  _302
REMARK  125  A    between atoms: _301  and  _304
REMARK  126  A    between atoms: _304  and  _305
REMARK  127  A    between atoms: _308  and  _310
REMARK  128  A    between atoms: _310  and  _311
REMARK  129  A    between atoms: _310  and  _313
REMARK  130  A    between atoms: _313  and  _314
REMARK  131  A    between atoms: _317  and  _319
REMARK  132  A    between atoms: _319  and  _320
REMARK  133  A    between atoms: _319  and  _322
REMARK  134  A    between atoms: _322  and  _323
REMARK  135  A    between atoms: _326  and  _328
REMARK  136  A    between atoms: _328  and  _329
REMARK  137  A    between atoms: _328  and  _331
REMARK  138  A    between atoms: _331  and  _332
REMARK  139  A    between atoms: _335  and  _337
REMARK  140  A    between atoms: _337  and  _338
REMARK  141  A    between atoms: _340  and  _342
REMARK  142  A    between atoms: _342  and  _343
REMARK  143  A    between atoms: _346  and  _348
REMARK  144  A    between atoms: _348  and  _349
REMARK  145  A    between atoms: _348  and  _351
REMARK  146  A    between atoms: _351  and  _352
REMARK  147  A    between atoms: _355  and  _357
REMARK  148  A    between atoms: _357  and  _358
REMARK  149  A    between atoms: _357  and  _360
REMARK  150  A    between atoms: _360  and  _361
REMARK  151  A    between atoms: _364  and  _366
REMARK  152  A    between atoms: _366  and  _367
REMARK  153  A    between atoms: _366  and  _369
REMARK  154  A    between atoms: _369  and  _370
REMARK  155  A    between atoms: _373  and  _375
REMARK  156  A    between atoms: _375  and  _376
REMARK  157  A    between atoms: _375  and  _378
REMARK  158  A    between atoms: _381  and  _383
REMARK  159  A    between atoms: _383  and  _384
REMARK  160  A    between atoms: _383  and  _386
REMARK  161  A    between atoms: _386  and  _387
REMARK  162  A    between atoms: _390  and  _392
REMARK  163  A    between atoms: _392  and  _393
REMARK  164  A    between atoms: _392  and  _395
REMARK  165  A    between atoms: _395  and  _396
REMARK  166  A    between atoms: _396  and  _397
REMARK  167  A    between atoms: _397  and  _398
REMARK  168  A    between atoms: _398  and  _399
REMARK  169  A    between atoms: _403  and  _405
REMARK  170  A    between atoms: _405  and  _406
REMARK  171  A    between atoms: _405  and  _408
REMARK  172  A    between atoms: _408  and  _409
REMARK  173  A    between atoms: _409  and  _410
REMARK  174  A    between atoms: _412  and  _414
REMARK  175  A    between atoms: _414  and  _415
REMARK  176  A    between atoms: _414  and  _417
REMARK  177  A    between atoms: _417  and  _418
REMARK  178  A    between atoms: _421  and  _423
REMARK  179  A    between atoms: _423  and  _424
REMARK  180  A    between atoms: _426  and  _428
REMARK  181  A    between atoms: _428  and  _429
REMARK  182  A    between atoms: _431  and  _433
REMARK  183  A    between atoms: _433  and  _434
REMARK  184  A    between atoms: _433  and  _436
REMARK  185  A    between atoms: _436  and  _437
REMARK  186  A    between atoms: _440  and  _442
REMARK  187  A    between atoms: _442  and  _443
REMARK  188  A    between atoms: _445  and  _447
REMARK  189  A    between atoms: _447  and  _448
REMARK  190  A    between atoms: _450  and  _452
REMARK  191  A    between atoms: _452  and  _453
REMARK  192  A    between atoms: _452  and  _455
REMARK  193  A    between atoms: _455  and  _456
REMARK  194  A    between atoms: _462  and  _464
REMARK  195  A    between atoms: _464  and  _465
REMARK  196  A    between atoms: _464  and  _467
REMARK  197  A    between atoms: _467  and  _468
REMARK  198  A    between atoms: _471  and  _473
REMARK  199  A    between atoms: _473  and  _474
REMARK  200  A    between atoms: _473  and  _476
REMARK  201  A    between atoms: _479  and  _481
REMARK  202  A    between atoms: _481  and  _482
REMARK  203  A    between atoms: _481  and  _484
REMARK  204  A    between atoms: _484  and  _485
REMARK  205  A    between atoms: _488  and  _490
REMARK  206  A    between atoms: _490  and  _491
REMARK  207  A    between atoms: _490  and  _493
REMARK  208  A    between atoms: _493  and  _494
REMARK  209  A    between atoms: _498  and  _499
REMARK  210  A    between atoms: _504  and  _506
REMARK  211  A    between atoms: _506  and  _507
REMARK  212  A    between atoms: _506  and  _509
REMARK  213  A    between atoms: _512  and  _514
REMARK  214  A    between atoms: _514  and  _515
REMARK  215  A    between atoms: _514  and  _517
REMARK  216  A    between atoms: _517  and  _518
REMARK  217  A    between atoms: _523  and  _525
REMARK  218  A    between atoms: _525  and  _526
REMARK  219  A    between atoms: _525  and  _528
REMARK  220  A    between atoms: _528  and  _529
REMARK  221  A    between atoms: _532  and  _534
REMARK  222  A    between atoms: _534  and  _535
REMARK  223  A    between atoms: _534  and  _537
REMARK  224  A    between atoms: _537  and  _538
REMARK  225  A    between atoms: _541  and  _543
REMARK  226  A    between atoms: _543  and  _544
REMARK  227  A    between atoms: _546  and  _548
REMARK  228  A    between atoms: _548  and  _549
REMARK  229  A    between atoms: _548  and  _551
REMARK  230  A    between atoms: _551  and  _552
REMARK  231  A    between atoms: _552  and  _553
REMARK  232  A    between atoms: _553  and  _554
REMARK  233  A    between atoms: _563  and  _565
REMARK  234  A    between atoms: _565  and  _566
REMARK  235  A    between atoms: _565  and  _568
REMARK  236  A    between atoms: _568  and  _569
REMARK                            x       y       z     vdW  Elec       q    Type
REMARK                         _______ _______ _______ _____ _____    ______ ____
ROOT
ATOM      1  CA  LEU A   1      12.525  26.831  -4.017  0.00  0.00    +0.133 C 
ENDROOT
BRANCH   1   2
ATOM      2  N   LEU A   1      12.102  25.932  -5.086  0.00  0.00    -0.239 NA
ATOM      3  H   LEU A   1      11.925  24.934  -4.853  0.00  0.00    +0.142 HD
ENDBRANCH   1   2
BRANCH   1   4
ATOM      4  C   LEU A   1      14.032  26.791  -3.747  0.00  0.00    +0.224 C 
ATOM      5  O   LEU A   1      14.579  25.731  -3.446  0.00  0.00    -0.287 OA
ENDBRANCH   1   4
BRANCH   1   6
ATOM      6  CB  LEU A   1      11.773  26.451  -2.735  0.00  0.00    +0.025 C 
BRANCH   6   7
ATOM      7  CG  LEU A   1      11.929  27.303  -1.475  0.00  0.00    +0.002 C 
ATOM      8  CD2 LEU A   1      11.270  26.591  -0.299  0.00  0.00    +0.000 C 
ATOM      9  CD1 LEU A   1      11.282  28.661  -1.690  0.00  0.00    +0.000 C 
ENDBRANCH   6   7
ENDBRANCH   1   6
TORSDOF 4
REMARK  Name = ../refined-set-2016/2cen/2cen_pocket.pdb
REMARK  236 active torsions:
REMARK  status: ('A' for Active; 'I' for Inactive)
REMARK    1  A    between atoms: _1  and  _3
REMARK    2  A    between atoms: _3  and  _4
REMARK    3  A    between atoms: _3  and  _6
REMARK    4  A    between atoms: _6  and  _7
REMARK    5  A    between atoms: _7  and  _8
REMARK    6  A    between atoms: _8  and  _9
REMARK    7  A    between atoms: _18  and  _20
REMARK    8  A    between atoms: _20  and  _21
REMARK    9  A    between atoms: _20  and  _23
REMARK   10  A    between atoms: _23  and  _24
REMARK   11  A    between atoms: _27  and  _29
REMARK   12  A    between atoms: _29  and  _30
REMARK   13  A    between atoms: _29  and  _32
REMARK   14  A    between atoms: _32  and  _33
REMARK   15  A    between atoms: _36  and  _38
REMARK   16  A    between atoms: _38  and  _39
REMARK   17  A    between atoms: _38  and  _41
REMARK   18  A    between atoms: _41  and  _42
REMARK   19  A    between atoms: _45  and  _47
REMARK   20  A    between atoms: _47  and  _48
REMARK   21  A    between atoms: _47  and  _50
REMARK   22  A    between atoms: _50  and  _51
REMARK   23  A    between atoms: _54  and  _56
REMARK   24  A    between atoms: _56  and  _57
REMARK   25  A    between atoms: _56  and  _59
REMARK   26  A    between atoms: _59  and  _60
REMARK   27  A    between atoms: _63  and  _65
REMARK   28  A    between atoms: _65  and  _66
REMARK   29  A    between atoms: _68  and  _70
REMARK   30  A    between atoms: _70  and  _71
REMARK   31  A    between atoms: _74  and  _76
REMARK   32  A    between atoms: _76  and  _77
REMARK   33  A    between atoms: _76  and  _79
REMARK   34  A    between atoms: _79  and  _80
REMARK   35  A    between atoms: _83  and  _85
REMARK   36  A    between atoms: _85  and  _86
REMARK   37  A    between atoms: _85  and  _88
REMARK   38  A    between atoms: _88  and  _89
REMARK   39  A    between atoms: _92  and  _94
REMARK   40  A    between atoms: _94  and  _95
REMARK   41  A    between atoms: _94  and  _97
REMARK   42  A    between atoms: _97  and  _98
REMARK   43  A    between atoms: _101  and  _103
REMARK   44  A    between atoms: _103  and  _104
REMARK   45  A    between atoms: _103  and  _106
REMARK   46  A    between atoms: _109  and  _111
REMARK   47  A    between atoms: _111  and  _112
REMARK   48  A    between atoms: _111  and  _114
REMARK   49  A    between atoms: _114  and  _115
REMARK   50  A    between atoms: _115  and  _116
REMARK   51  A    between atoms: _116  and  _117
REMARK   52  A    between atoms: _117  and  _118
REMARK   53  A    between atoms: _122  and  _124
REMARK   54  A    between atoms: _124  and  _125
REMARK   55  A    between atoms: _124  and  _127
REMARK   56  A    between atoms: _127  and  _128
REMARK   57  A    between atoms: _128  and  _129
REMARK   58  A    between atoms: _131  and  _133
REMARK   59  A    between atoms: _133  and  _134
REMARK   60  A    between atoms: _133  and  _136
REMARK   61  A    between atoms: _136  and  _137
REMARK   62  A    between atoms: _140  and  _142
REMARK   63  A    between atoms: _142  and  _143
REMARK   64  A    between atoms: _145  and  _147
REMARK   65  A    between atoms: _147  and  _148
REMARK   66  A    between atoms: _150  and  _152
REMARK   67  A    between atoms: _152  and  _153
REMARK   68  A    between atoms: _152  and  _155
REMARK   69  A    between atoms: _155  and  _156
REMARK   70  A    between atoms: _159  and  _161
REMARK   71  A    between atoms: _161  and  _162
REMARK   72  A    between atoms: _164  and  _166
REMARK   73  A    between atoms: _166  and  _167
REMARK   74  A    between atoms: _169  and  _171
REMARK   75  A    between atoms: _171  and  _172
REMARK   76  A    between atoms: _171  and  _174
REMARK   77  A    between atoms: _174  and  _175
REMARK   78  A    between atoms: _181  and  _183
REMARK   79  A    between atoms: _183  and  _184
REMARK   80  A    between atoms: _183  and  _186
REMARK   81  A    between atoms: _186  and  _187
REMARK   82  A    between atoms: _190  and  _192
REMARK   83  A    between atoms: _192  and  _193
REMARK   84  A    between atoms: _192  and  _195
REMARK   85  A    between atoms: _198  and  _200
REMARK   86  A    between atoms: _200  and  _201
REMARK   87  A    between atoms: _200  and  _203
REMARK   88  A    between atoms: _203  and  _204
REMARK   89  A    between atoms: _207  and  _209
REMARK   90  A    between atoms: _209  and  _210
REMARK   91  A    between atoms: _209  and  _212
REMARK   92  A    between atoms: _212  and  _213
REMARK   93  A    between atoms: _217  and  _218
REMARK   94  A    between atoms: _223  and  _225
REMARK   95  A    between atoms: _225  and  _226
REMARK   96  A    between atoms: _225  and  _228
REMARK   97  A    between atoms: _231  and  _233
REMARK   98  A    between atoms: _233  and  _234
REMARK   99  A    between atoms: _233  and  _236
REMARK  100  A    between atoms: _236  and  _237
REMARK  101  A    between atoms: _242  and  _244
REMARK  102  A    between atoms: _244  and  _245
REMARK  103  A    between atoms: _244  and  _247
REMARK  104  A    between atoms: _247  and  _248
REMARK  105  A    between atoms: _251  and  _253
REMARK  106  A    between atoms: _253  and  _254
REMARK  107  A    between atoms: _253  and  _256
REMARK  108  A    between atoms: _256  and  _257
REMARK  109  A    between atoms: _260  and  _262
REMARK  110  A    between atoms: _262  and  _263
REMARK  111  A    between atoms: _265  and  _267
REMARK  112  A    between atoms: _267  and  _268
REMARK  113  A    between atoms: _267  and  _270
REMARK  114  A    between atoms: _270  and  _271
REMARK  115  A    between atoms: _271  and  _272
REMARK  116  A    between atoms: _272  and  _273
REMARK  117  A    between atoms: _282  and  _284
REMARK  118  A    between atoms: _284  and  _285
REMARK  119  A    between atoms: _284  and  _287
REMARK  120  A    between atoms: _287  and  _288
REMARK  121  A    between atoms: _288  and  _289
REMARK  122  A    between atoms: _289  and  _290
REMARK  123  A    between atoms: _299  and  _301
REMARK  124  A    between atoms: _301  and  _302
REMARK  125  A    between atoms: _301  and  _304
REMARK  126  A    between atoms: _304  and  _305
REMARK  127  A    between atoms: _308  and  _310
REMARK  128  A    between atoms: _310  and  _311
REMARK  129  A    between atoms: _310  and  _313
REMARK  130  A    between atoms: _313  and  _314
REMARK  131  A    between atoms: _317  and  _319
REMARK  132  A    between atoms: _319  and  _320
REMARK  133  A    between atoms: _319  and  _322
REMARK  134  A    between atoms: _322  and  _323
REMARK  135  A    between atoms: _326  and  _328
REMARK  136  A    between atoms: _328  and  _329
REMARK  137  A    between atoms: _328  and  _331
REMARK  138  A    between atoms: _331  and  _332
REMARK  139  A    between atoms: _335  and  _337
REMARK  140  A    between atoms: _337  and  _338
REMARK  141  A    between atoms: _340  and  _342
REMARK  142  A    between atoms: _342  and  _343
REMARK  143  A    between atoms: _346  and  _348
REMARK  144  A    between atoms: _348  and  _349
REMARK  145  A    between atoms: _348  and  _351
REMARK  146  A    between atoms: _351  and  _352
REMARK  147  A    between atoms: _355  and  _357
REMARK  148  A    between atoms: _357  and  _358
REMARK  149  A    between atoms: _357  and  _360
REMARK  150  A    between atoms: _360  and  _361
REMARK  151  A    between atoms: _364  and  _366
REMARK  152  A    between atoms: _366  and  _367
REMARK  153  A    between atoms: _366  and  _369
REMARK  154  A    between atoms: _369  and  _370
REMARK  155  A    between atoms: _373  and  _375
REMARK  156  A    between atoms: _375  and  _376
REMARK  157  A    between atoms: _375  and  _378
REMARK  158  A    between atoms: _381  and  _383
REMARK  159  A    between atoms: _383  and  _384
REMARK  160  A    between atoms: _383  and  _386
REMARK  161  A    between atoms: _386  and  _387
REMARK  162  A    between atoms: _390  and  _392
REMARK  163  A    between atoms: _392  and  _393
REMARK  164  A    between atoms: _392  and  _395
REMARK  165  A    between atoms: _395  and  _396
REMARK  166  A    between atoms: _396  and  _397
REMARK  167  A    between atoms: _397  and  _398
REMARK  168  A    between atoms: _398  and  _399
REMARK  169  A    between atoms: _403  and  _405
REMARK  170  A    between atoms: _405  and  _406
REMARK  171  A    between atoms: _405  and  _408
REMARK  172  A    between atoms: _408  and  _409
REMARK  173  A    between atoms: _409  and  _410
REMARK  174  A    between atoms: _412  and  _414
REMARK  175  A    between atoms: _414  and  _415
REMARK  176  A    between atoms: _414  and  _417
REMARK  177  A    between atoms: _417  and  _418
REMARK  178  A    between atoms: _421  and  _423
REMARK  179  A    between atoms: _423  and  _424
REMARK  180  A    between atoms: _426  and  _428
REMARK  181  A    between atoms: _428  and  _429
REMARK  182  A    between atoms: _431  and  _433
REMARK  183  A    between atoms: _433  and  _434
REMARK  184  A    between atoms: _433  and  _436
REMARK  185  A    between atoms: _436  and  _437
REMARK  186  A    between atoms: _440  and  _442
REMARK  187  A    between atoms: _442  and  _443
REMARK  188  A    between atoms: _445  and  _447
REMARK  189  A    between atoms: _447  and  _448
REMARK  190  A    between atoms: _450  and  _452
REMARK  191  A    between atoms: _452  and  _453
REMARK  192  A    between atoms: _452  and  _455
REMARK  193  A    between atoms: _455  and  _456
REMARK  194  A    between atoms: _462  and  _464
REMARK  195  A    between atoms: _464  and  _465
REMARK  196  A    between atoms: _464  and  _467
REMARK  197  A    between atoms: _467  and  _468
REMARK  198  A    between atoms: _471  and  _473
REMARK  199  A    between atoms: _473  and  _474
REMARK  200  A    between atoms: _473  and  _476
REMARK  201  A    between atoms: _479  and  _481
REMARK  202  A    between atoms: _481  and  _482
REMARK  203  A    between atoms: _481  and  _484
REMARK  204  A    between atoms: _484  and  _485
REMARK  205  A    between atoms: _488  and  _490
REMARK  206  A    between atoms: _490  and  _491
REMARK  207  A    between atoms: _490  and  _493
REMARK  208  A    between atoms: _493  and  _494
REMARK  209  A    between atoms: _498  and  _499
REMARK  210  A    between atoms: _504  and  _506
REMARK  211  A    between atoms: _506  and  _507
REMARK  212  A    between atoms: _506  and  _509
REMARK  213  A    between atoms: _512  and  _514
REMARK  214  A    between atoms: _514  and  _515
REMARK  215  A    between atoms: _514  and  _517
REMARK  216  A    between atoms: _517  and  _518
REMARK  217  A    between atoms: _523  and  _525
REMARK  218  A    between atoms: _525  and  _526
REMARK  219  A    between atoms: _525  and  _528
REMARK  220  A    between atoms: _528  and  _529
REMARK  221  A    between atoms: _532  and  _534
REMARK  222  A    between atoms: _534  and  _535
REMARK  223  A    between atoms: _534  and  _537
REMARK  224  A    between atoms: _537  and  _538
REMARK  225  A    between atoms: _541  and  _543
REMARK  226  A    between atoms: _543  and  _544
REMARK  227  A    between atoms: _546  and  _548
REMARK  228  A    between atoms: _548  and  _549
REMARK  229  A    between atoms: _548  and  _551
REMARK  230  A    between atoms: _551  and  _552
REMARK  231  A    between atoms: _552  and  _553
REMARK  232  A    between atoms: _553  and  _554
REMARK  233  A    between atoms: _563  and  _565
REMARK  234  A    between atoms: _565  and  _566
REMARK  235  A    between atoms: _565  and  _568
REMARK  236  A    between atoms: _568  and  _569
REMARK                            x       y       z     vdW  Elec       q    Type
REMARK                         _______ _______ _______ _____ _____    ______ ____
ROOT
ATOM      1  C   ASP A   5      21.348  19.346   0.831  0.00  0.00    +0.241 C 
ATOM      2  N   ASP A   6      20.188  18.768   0.528  0.00  0.00    -0.297 N 
ATOM      3  H   ASP A   6      19.424  18.779   1.233  0.00  0.00    +0.150 HD
ATOM      4  O   ASP A   5      22.299  19.425   0.046  0.00  0.00    -0.273 OA
ENDROOT
BRANCH   1   5
ATOM      5  CA  ASP A   5      21.446  19.924   2.240  0.00  0.00    +0.160 C 
BRANCH   5   7
ATOM      6  C   ALA A   4      19.728  21.621   2.121  0.00  0.00    +0.241 C 
ATOM      7  N   ASP A   5      20.161  20.485   2.659  0.00  0.00    -0.297 N 
ATOM      8  H   ASP A   5      19.588  19.996   3.376  0.00  0.00    +0.150 HD
ATOM      9  O   ALA A   4      20.375  22.236   1.278  0.00  0.00    -0.273 OA
BRANCH   6  10
ATOM     10  CA  ALA A   4      18.378  22.149   2.592  0.00  0.00    +0.149 C 
ATOM     11  CB  ALA A   4      17.364  22.094   1.447  0.00  0.00    +0.031 C 
BRANCH  10  14
ATOM     12  C   GLY A   3      18.557  23.818   4.359  0.00  0.00    +0.243 C 
ATOM     13  O   GLY A   3      18.511  22.957   5.238  0.00  0.00    -0.273 OA
ATOM     14  N   ALA A   4      18.506  23.525   3.065  0.00  0.00    -0.297 N 
ATOM     15  H   ALA A   4      18.559  24.296   2.369  0.00  0.00    +0.150 HD
BRANCH  12  16
ATOM     16  CA  GLY A   3      18.683  25.290   4.714  0.00  0.00    +0.176 C 
BRANCH  16  18
ATOM     17  C   THR A   2      19.959  26.427   3.005  0.00  0.00    +0.243 C 
ATOM     18  N   GLY A   3      18.776  26.159   3.551  0.00  0.00    -0.295 N 
ATOM     19  H   GLY A   3      17.913  26.573   3.144  0.00  0.00    +0.150 HD
ATOM     20  O   THR A   2      21.015  25.968   3.443  0.00  0.00    -0.273 OA
BRANCH  17  21
ATOM     21  CA  THR A   2      19.964  27.342   1.780  0.00  0.00    +0.176 C 
BRANCH  21  23
ATOM     22  C   ASP A   1      18.102  26.397   0.561  0.00  0.00    +0.239 C 
ATOM     23  N   THR A   2      18.656  27.453   1.148  0.00  0.00    -0.295 N 
ATOM     24  H   THR A   2      18.153  28.363   1.156  0.00  0.00    +0.150 HD
ATOM     25  O   ASP A   1      18.632  25.285   0.567  0.00  0.00    -0.274 OA
BRANCH  22  26
ATOM     26  CA  ASP A   1      16.736  26.601  -0.089  0.00  0.00    +0.156 C 
BRANCH  26  27
ATOM     27  N   ASP A   1      16.713  26.842  -1.526  0.00  0.00    -0.238 NA
ATOM     28  H   ASP A   1      17.107  26.119  -2.161  0.00  0.00    +0.142 HD
ENDBRANCH  26  27
BRANCH  26  29
ATOM     29  CB  ASP A   1      15.872  25.368   0.179  0.00  0.00    +0.140 C 
BRANCH  29  30
ATOM     30  CG  ASP A   1      15.434  25.268   1.613  0.00  0.00    +0.367 C 
ATOM     31  OD2 ASP A   1      16.121  25.844   2.482  0.00  0.00    -0.246 OA
ATOM     32  OD1 ASP A   1      14.403  24.607   1.862  0.00  0.00    -0.246 OA
ENDBRANCH  29  30
ENDBRANCH  26  29
ENDBRANCH  22  26
ENDBRANCH  21  23
BRANCH  21  33
ATOM     33  CB  THR A   2      20.509  28.724   2.188  0.00  0.00    +0.137 C 
ATOM     34  CG2 THR A   2      20.718  29.582   0.960  0.00  0.00    +0.034 C 
BRANCH  33  35
ATOM     35  OG1 THR A   2      19.583  29.372   3.070  0.00  0.00    -0.382 OA
ATOM     36  HG1 THR A   2      19.458  28.817   3.880  0.00  0.00    +0.210 HD
ENDBRANCH  33  35
ENDBRANCH  21  33
ENDBRANCH  17  21
ENDBRANCH  16  18
ENDBRANCH  12  16
ENDBRANCH  10  14
ENDBRANCH   6  10
ENDBRANCH   5   7
BRANCH   5  37
ATOM     37  CB  ASP A   5      21.890  18.796   3.173  0.00  0.00    +0.143 C 
BRANCH  37  38
ATOM     38  CG  ASP A   5      21.981  19.228   4.619  0.00  0.00    +0.367 C 
ATOM     39  OD2 ASP A   5      21.570  18.437   5.495  0.00  0.00    -0.246 OA
ATOM     40  OD1 ASP A   5      22.475  20.342   4.882  0.00  0.00    -0.246 OA
ENDBRANCH  37  38
ENDBRANCH   5  37
ENDBRANCH   1   5
BRANCH   2  41
ATOM     41  CA  ASP A   6      19.950  18.122  -0.753  0.00  0.00    +0.160 C 
BRANCH  41  42
ATOM     42  C   ASP A   6      18.828  18.761  -1.560  0.00  0.00    +0.241 C 
ATOM     43  O   ASP A   6      18.125  19.652  -1.090  0.00  0.00    -0.273 OA
ATOM     44  N   THR A   7      18.669  18.266  -2.781  0.00  0.00    -0.295 N 
ATOM     45  H   THR A   7      19.306  17.505  -3.092  0.00  0.00    +0.150 HD
BRANCH  44  46
ATOM     46  CA  THR A   7      17.647  18.734  -3.707  0.00  0.00    +0.176 C 
BRANCH  46  47
ATOM     47  C   THR A   7      16.593  17.640  -3.835  0.00  0.00    +0.243 C 
ATOM     48  N   VAL A   8      15.342  17.979  -3.548  0.00  0.00    -0.297 N 
ATOM     49  H   VAL A   8      15.128  18.953  -3.252  0.00  0.00    +0.150 HD
ATOM     50  O   THR A   7      16.915  16.499  -4.175  0.00  0.00    -0.273 OA
BRANCH  48  51
ATOM     51  CA  VAL A   8      14.266  17.002  -3.643  0.00  0.00    +0.149 C 
BRANCH  51  52
ATOM     52  C   VAL A   8      13.117  17.566  -4.454  0.00  0.00    +0.241 C 
ATOM     53  O   VAL A   8      12.648  18.678  -4.205  0.00  0.00    -0.273 OA
ATOM     54  N   LEU A   9      12.671  16.785  -5.427  0.00  0.00    -0.298 N 
ATOM     55  H   LEU A   9      13.116  15.856  -5.572  0.00  0.00    +0.150 HD
BRANCH  54  56
ATOM     56  CA  LEU A   9      11.579  17.188  -6.297  0.00  0.00    +0.137 C 
BRANCH  56  57
ATOM     57  C   LEU A   9      10.362  16.290  -6.146  0.00  0.00    +0.227 C 
ATOM     58  O   LEU A   9      10.475  15.126  -5.764  0.00  0.00    -0.286 OA
ENDBRANCH  56  57
BRANCH  56  59
ATOM     59  CB  LEU A   9      12.041  17.166  -7.754  0.00  0.00    +0.028 C 
BRANCH  59  60
ATOM     60  CG  LEU A   9      13.227  18.061  -8.126  0.00  0.00    +0.002 C 
ATOM     61  CD2 LEU A   9      12.914  19.504  -7.788  0.00  0.00    +0.000 C 
ATOM     62  CD1 LEU A   9      13.507  17.927  -9.618  0.00  0.00    +0.000 C 
ENDBRANCH  59  60
ENDBRANCH  56  59
ENDBRANCH  54  56
ENDBRANCH  51  52
BRANCH  51  63
ATOM     63  CB  VAL A   8      13.754  16.592  -2.251  0.00  0.00    +0.027 C 
ATOM     64  CG2 VAL A   8      14.904  16.050  -1.437  0.00  0.00    +0.002 C 
ATOM     65  CG1 VAL A   8      12.660  15.531  -2.379  0.00  0.00    +0.002 C 
ENDBRANCH  51  63
ENDBRANCH  48  51
ENDBRANCH  46  47
BRANCH  46  66
ATOM     66  CB  THR A   7      18.270  19.010  -5.090  0.00  0.00    +0.137 C 
ATOM     67  CG2 THR A   7      17.196  19.368  -6.123  0.00  0.00    +0.034 C 
BRANCH  66  68
ATOM     68  OG1 THR A   7      19.198  20.091  -4.974  0.00  0.00    -0.382 OA
ATOM     69  HG1 THR A   7      19.909  19.847  -4.330  0.00  0.00    +0.210 HD
ENDBRANCH  66  68
ENDBRANCH  46  66
ENDBRANCH  44  46
ENDBRANCH  41  42
BRANCH  41  70
ATOM     70  CB  ASP A   6      19.599  16.643  -0.534  0.00  0.00    +0.143 C 
BRANCH  70  71
ATOM     71  CG  ASP A   6      20.549  15.946   0.425  0.00  0.00    +0.367 C 
ATOM     72  OD2 ASP A   6      20.060  15.334   1.401  0.00  0.00    -0.246 OA
ATOM     73  OD1 ASP A   6      21.777  15.998   0.199  0.00  0.00    -0.246 OA
ENDBRANCH  70  71
ENDBRANCH  41  70
ENDBRANCH   2  41
TORSDOF 31
REMARK  Name = ../refined-set-2016/2cen/2cen_pocket.pdb
REMARK  236 active torsions:
REMARK  status: ('A' for Active; 'I' for Inactive)
REMARK    1  A    between atoms: _1  and  _3
REMARK    2  A    between atoms: _3  and  _4
REMARK    3  A    between atoms: _3  and  _6
REMARK    4  A    between atoms: _6  and  _7
REMARK    5  A    between atoms: _7  and  _8
REMARK    6  A    between atoms: _8  and  _9
REMARK    7  A    between atoms: _18  and  _20
REMARK    8  A    between atoms: _20  and  _21
REMARK    9  A    between atoms: _20  and  _23
REMARK   10  A    between atoms: _23  and  _24
REMARK   11  A    between atoms: _27  and  _29
REMARK   12  A    between atoms: _29  and  _30
REMARK   13  A    between atoms: _29  and  _32
REMARK   14  A    between atoms: _32  and  _33
REMARK   15  A    between atoms: _36  and  _38
REMARK   16  A    between atoms: _38  and  _39
REMARK   17  A    between atoms: _38  and  _41
REMARK   18  A    between atoms: _41  and  _42
REMARK   19  A    between atoms: _45  and  _47
REMARK   20  A    between atoms: _47  and  _48
REMARK   21  A    between atoms: _47  and  _50
REMARK   22  A    between atoms: _50  and  _51
REMARK   23  A    between atoms: _54  and  _56
REMARK   24  A    between atoms: _56  and  _57
REMARK   25  A    between atoms: _56  and  _59
REMARK   26  A    between atoms: _59  and  _60
REMARK   27  A    between atoms: _63  and  _65
REMARK   28  A    between atoms: _65  and  _66
REMARK   29  A    between atoms: _68  and  _70
REMARK   30  A    between atoms: _70  and  _71
REMARK   31  A    between atoms: _74  and  _76
REMARK   32  A    between atoms: _76  and  _77
REMARK   33  A    between atoms: _76  and  _79
REMARK   34  A    between atoms: _79  and  _80
REMARK   35  A    between atoms: _83  and  _85
REMARK   36  A    between atoms: _85  and  _86
REMARK   37  A    between atoms: _85  and  _88
REMARK   38  A    between atoms: _88  and  _89
REMARK   39  A    between atoms: _92  and  _94
REMARK   40  A    between atoms: _94  and  _95
REMARK   41  A    between atoms: _94  and  _97
REMARK   42  A    between atoms: _97  and  _98
REMARK   43  A    between atoms: _101  and  _103
REMARK   44  A    between atoms: _103  and  _104
REMARK   45  A    between atoms: _103  and  _106
REMARK   46  A    between atoms: _109  and  _111
REMARK   47  A    between atoms: _111  and  _112
REMARK   48  A    between atoms: _111  and  _114
REMARK   49  A    between atoms: _114  and  _115
REMARK   50  A    between atoms: _115  and  _116
REMARK   51  A    between atoms: _116  and  _117
REMARK   52  A    between atoms: _117  and  _118
REMARK   53  A    between atoms: _122  and  _124
REMARK   54  A    between atoms: _124  and  _125
REMARK   55  A    between atoms: _124  and  _127
REMARK   56  A    between atoms: _127  and  _128
REMARK   57  A    between atoms: _128  and  _129
REMARK   58  A    between atoms: _131  and  _133
REMARK   59  A    between atoms: _133  and  _134
REMARK   60  A    between atoms: _133  and  _136
REMARK   61  A    between atoms: _136  and  _137
REMARK   62  A    between atoms: _140  and  _142
REMARK   63  A    between atoms: _142  and  _143
REMARK   64  A    between atoms: _145  and  _147
REMARK   65  A    between atoms: _147  and  _148
REMARK   66  A    between atoms: _150  and  _152
REMARK   67  A    between atoms: _152  and  _153
REMARK   68  A    between atoms: _152  and  _155
REMARK   69  A    between atoms: _155  and  _156
REMARK   70  A    between atoms: _159  and  _161
REMARK   71  A    between atoms: _161  and  _162
REMARK   72  A    between atoms: _164  and  _166
REMARK   73  A    between atoms: _166  and  _167
REMARK   74  A    between atoms: _169  and  _171
REMARK   75  A    between atoms: _171  and  _172
REMARK   76  A    between atoms: _171  and  _174
REMARK   77  A    between atoms: _174  and  _175
REMARK   78  A    between atoms: _181  and  _183
REMARK   79  A    between atoms: _183  and  _184
REMARK   80  A    between atoms: _183  and  _186
REMARK   81  A    between atoms: _186  and  _187
REMARK   82  A    between atoms: _190  and  _192
REMARK   83  A    between atoms: _192  and  _193
REMARK   84  A    between atoms: _192  and  _195
REMARK   85  A    between atoms: _198  and  _200
REMARK   86  A    between atoms: _200  and  _201
REMARK   87  A    between atoms: _200  and  _203
REMARK   88  A    between atoms: _203  and  _204
REMARK   89  A    between atoms: _207  and  _209
REMARK   90  A    between atoms: _209  and  _210
REMARK   91  A    between atoms: _209  and  _212
REMARK   92  A    between atoms: _212  and  _213
REMARK   93  A    between atoms: _217  and  _218
REMARK   94  A    between atoms: _223  and  _225
REMARK   95  A    between atoms: _225  and  _226
REMARK   96  A    between atoms: _225  and  _228
REMARK   97  A    between atoms: _231  and  _233
REMARK   98  A    between atoms: _233  and  _234
REMARK   99  A    between atoms: _233  and  _236
REMARK  100  A    between atoms: _236  and  _237
REMARK  101  A    between atoms: _242  and  _244
REMARK  102  A    between atoms: _244  and  _245
REMARK  103  A    between atoms: _244  and  _247
REMARK  104  A    between atoms: _247  and  _248
REMARK  105  A    between atoms: _251  and  _253
REMARK  106  A    between atoms: _253  and  _254
REMARK  107  A    between atoms: _253  and  _256
REMARK  108  A    between atoms: _256  and  _257
REMARK  109  A    between atoms: _260  and  _262
REMARK  110  A    between atoms: _262  and  _263
REMARK  111  A    between atoms: _265  and  _267
REMARK  112  A    between atoms: _267  and  _268
REMARK  113  A    between atoms: _267  and  _270
REMARK  114  A    between atoms: _270  and  _271
REMARK  115  A    between atoms: _271  and  _272
REMARK  116  A    between atoms: _272  and  _273
REMARK  117  A    between atoms: _282  and  _284
REMARK  118  A    between atoms: _284  and  _285
REMARK  119  A    between atoms: _284  and  _287
REMARK  120  A    between atoms: _287  and  _288
REMARK  121  A    between atoms: _288  and  _289
REMARK  122  A    between atoms: _289  and  _290
REMARK  123  A    between atoms: _299  and  _301
REMARK  124  A    between atoms: _301  and  _302
REMARK  125  A    between atoms: _301  and  _304
REMARK  126  A    between atoms: _304  and  _305
REMARK  127  A    between atoms: _308  and  _310
REMARK  128  A    between atoms: _310  and  _311
REMARK  129  A    between atoms: _310  and  _313
REMARK  130  A    between atoms: _313  and  _314
REMARK  131  A    between atoms: _317  and  _319
REMARK  132  A    between atoms: _319  and  _320
REMARK  133  A    between atoms: _319  and  _322
REMARK  134  A    between atoms: _322  and  _323
REMARK  135  A    between atoms: _326  and  _328
REMARK  136  A    between atoms: _328  and  _329
REMARK  137  A    between atoms: _328  and  _331
REMARK  138  A    between atoms: _331  and  _332
REMARK  139  A    between atoms: _335  and  _337
REMARK  140  A    between atoms: _337  and  _338
REMARK  141  A    between atoms: _340  and  _342
REMARK  142  A    between atoms: _342  and  _343
REMARK  143  A    between atoms: _346  and  _348
REMARK  144  A    between atoms: _348  and  _349
REMARK  145  A    between atoms: _348  and  _351
REMARK  146  A    between atoms: _351  and  _352
REMARK  147  A    between atoms: _355  and  _357
REMARK  148  A    between atoms: _357  and  _358
REMARK  149  A    between atoms: _357  and  _360
REMARK  150  A    between atoms: _360  and  _361
REMARK  151  A    between atoms: _364  and  _366
REMARK  152  A    between atoms: _366  and  _367
REMARK  153  A    between atoms: _366  and  _369
REMARK  154  A    between atoms: _369  and  _370
REMARK  155  A    between atoms: _373  and  _375
REMARK  156  A    between atoms: _375  and  _376
REMARK  157  A    between atoms: _375  and  _378
REMARK  158  A    between atoms: _381  and  _383
REMARK  159  A    between atoms: _383  and  _384
REMARK  160  A    between atoms: _383  and  _386
REMARK  161  A    between atoms: _386  and  _387
REMARK  162  A    between atoms: _390  and  _392
REMARK  163  A    between atoms: _392  and  _393
REMARK  164  A    between atoms: _392  and  _395
REMARK  165  A    between atoms: _395  and  _396
REMARK  166  A    between atoms: _396  and  _397
REMARK  167  A    between atoms: _397  and  _398
REMARK  168  A    between atoms: _398  and  _399
REMARK  169  A    between atoms: _403  and  _405
REMARK  170  A    between atoms: _405  and  _406
REMARK  171  A    between atoms: _405  and  _408
REMARK  172  A    between atoms: _408  and  _409
REMARK  173  A    between atoms: _409  and  _410
REMARK  174  A    between atoms: _412  and  _414
REMARK  175  A    between atoms: _414  and  _415
REMARK  176  A    between atoms: _414  and  _417
REMARK  177  A    between atoms: _417  and  _418
REMARK  178  A    between atoms: _421  and  _423
REMARK  179  A    between atoms: _423  and  _424
REMARK  180  A    between atoms: _426  and  _428
REMARK  181  A    between atoms: _428  and  _429
REMARK  182  A    between atoms: _431  and  _433
REMARK  183  A    between atoms: _433  and  _434
REMARK  184  A    between atoms: _433  and  _436
REMARK  185  A    between atoms: _436  and  _437
REMARK  186  A    between atoms: _440  and  _442
REMARK  187  A    between atoms: _442  and  _443
REMARK  188  A    between atoms: _445  and  _447
REMARK  189  A    between atoms: _447  and  _448
REMARK  190  A    between atoms: _450  and  _452
REMARK  191  A    between atoms: _452  and  _453
REMARK  192  A    between atoms: _452  and  _455
REMARK  193  A    between atoms: _455  and  _456
REMARK  194  A    between atoms: _462  and  _464
REMARK  195  A    between atoms: _464  and  _465
REMARK  196  A    between atoms: _464  and  _467
REMARK  197  A    between atoms: _467  and  _468
REMARK  198  A    between atoms: _471  and  _473
REMARK  199  A    between atoms: _473  and  _474
REMARK  200  A    between atoms: _473  and  _476
REMARK  201  A    between atoms: _479  and  _481
REMARK  202  A    between atoms: _481  and  _482
REMARK  203  A    between atoms: _481  and  _484
REMARK  204  A    between atoms: _484  and  _485
REMARK  205  A    between atoms: _488  and  _490
REMARK  206  A    between atoms: _490  and  _491
REMARK  207  A    between atoms: _490  and  _493
REMARK  208  A    between atoms: _493  and  _494
REMARK  209  A    between atoms: _498  and  _499
REMARK  210  A    between atoms: _504  and  _506
REMARK  211  A    between atoms: _506  and  _507
REMARK  212  A    between atoms: _506  and  _509
REMARK  213  A    between atoms: _512  and  _514
REMARK  214  A    between atoms: _514  and  _515
REMARK  215  A    between atoms: _514  and  _517
REMARK  216  A    between atoms: _517  and  _518
REMARK  217  A    between atoms: _523  and  _525
REMARK  218  A    between atoms: _525  and  _526
REMARK  219  A    between atoms: _525  and  _528
REMARK  220  A    between atoms: _528  and  _529
REMARK  221  A    between atoms: _532  and  _534
REMARK  222  A    between atoms: _534  and  _535
REMARK  223  A    between atoms: _534  and  _537
REMARK  224  A    between atoms: _537  and  _538
REMARK  225  A    between atoms: _541  and  _543
REMARK  226  A    between atoms: _543  and  _544
REMARK  227  A    between atoms: _546  and  _548
REMARK  228  A    between atoms: _548  and  _549
REMARK  229  A    between atoms: _548  and  _551
REMARK  230  A    between atoms: _551  and  _552
REMARK  231  A    between atoms: _552  and  _553
REMARK  232  A    between atoms: _553  and  _554
REMARK  233  A    between atoms: _563  and  _565
REMARK  234  A    between atoms: _565  and  _566
REMARK  235  A    between atoms: _565  and  _568
REMARK  236  A    between atoms: _568  and  _569
REMARK                            x       y       z     vdW  Elec       q    Type
REMARK                         _______ _______ _______ _____ _____    ______ ____
ROOT
ATOM      1  C   GLY A   5      12.178  18.244   9.262  0.00  0.00    +0.243 C 
ATOM      2  O   GLY A   5      12.221  17.462  10.214  0.00  0.00    -0.273 OA
ATOM      3  N   ILE A   6      11.482  19.373   9.285  0.00  0.00    -0.297 N 
ATOM      4  H   ILE A   6      11.464  19.968   8.432  0.00  0.00    +0.150 HD
ENDROOT
BRANCH   3   5
ATOM      5  CA  ILE A   6      10.740  19.811  10.463  0.00  0.00    +0.149 C 
BRANCH   5   6
ATOM      6  C   ILE A   6       9.775  18.820  11.108  0.00  0.00    +0.241 C 
ATOM      7  O   ILE A   6       9.722  18.715  12.337  0.00  0.00    -0.273 OA
ATOM      8  N   GLY A   7       9.014  18.097  10.297  0.00  0.00    -0.295 N 
ATOM      9  H   GLY A   7       9.100  18.205   9.266  0.00  0.00    +0.150 HD
BRANCH   8  10
ATOM     10  CA  GLY A   7       8.060  17.153  10.855  0.00  0.00    +0.176 C 
BRANCH  10  11
ATOM     11  C   GLY A   7       8.497  15.702  10.882  0.00  0.00    +0.243 C 
ATOM     12  O   GLY A   7       7.695  14.816  11.175  0.00  0.00    -0.273 OA
ATOM     13  N   GLY A   8       9.766  15.450  10.585  0.00  0.00    -0.295 N 
ATOM     14  H   GLY A   8      10.409  16.233  10.350  0.00  0.00    +0.150 HD
BRANCH  13  15
ATOM     15  CA  GLY A   8      10.259  14.084  10.588  0.00  0.00    +0.176 C 
BRANCH  15  16
ATOM     16  C   GLY A   8      10.966  13.728   9.298  0.00  0.00    +0.243 C 
ATOM     17  N   PHE A   9      11.099  12.432   9.030  0.00  0.00    -0.297 N 
ATOM     18  H   PHE A   9      10.710  11.736   9.698  0.00  0.00    +0.150 HD
ATOM     19  O   GLY A   8      11.379  14.612   8.554  0.00  0.00    -0.273 OA
BRANCH  17  20
ATOM     20  CA  PHE A   9      11.774  11.957   7.826  0.00  0.00    +0.153 C 
BRANCH  20  21
ATOM     21  C   PHE A   9      10.828  11.387   6.778  0.00  0.00    +0.241 C 
ATOM     22  O   PHE A   9       9.705  10.978   7.078  0.00  0.00    -0.273 OA
ATOM     23  N   ILE A  10      11.300  11.368   5.538  0.00  0.00    -0.298 N 
ATOM     24  H   ILE A  10      12.238  11.775   5.346  0.00  0.00    +0.150 HD
BRANCH  23  25
ATOM     25  CA  ILE A  10      10.539  10.793   4.440  0.00  0.00    +0.137 C 
BRANCH  25  26
ATOM     26  C   ILE A  10      11.527  10.013   3.590  0.00  0.00    +0.227 C 
ATOM     27  O   ILE A  10      12.718  10.331   3.552  0.00  0.00    -0.286 OA
ENDBRANCH  25  26
BRANCH  25  28
ATOM     28  CB  ILE A  10       9.843  11.856   3.556  0.00  0.00    +0.026 C 
ATOM     29  CG2 ILE A  10       8.858  12.662   4.395  0.00  0.00    +0.002 C 
BRANCH  28  30
ATOM     30  CG1 ILE A  10      10.880  12.756   2.882  0.00  0.00    +0.002 C 
ATOM     31  CD1 ILE A  10      10.304  13.627   1.784  0.00  0.00    +0.000 C 
ENDBRANCH  28  30
ENDBRANCH  25  28
ENDBRANCH  23  25
ENDBRANCH  20  21
BRANCH  20  32
ATOM     32  CB  PHE A   9      12.789  10.859   8.169  0.00  0.00    +0.055 C 
BRANCH  32  33
ATOM     33  CG  PHE A   9      13.956  11.332   8.980  0.00  0.00    -0.020 A 
ATOM     34  CD2 PHE A   9      13.790  11.719  10.305  0.00  0.00    -0.004 A 
ATOM     35  CE2 PHE A   9      14.873  12.152  11.062  0.00  0.00    -0.000 A 
ATOM     36  CZ  PHE A   9      16.140  12.202  10.491  0.00  0.00    -0.000 A 
ATOM     37  CE1 PHE A   9      16.319  11.817   9.166  0.00  0.00    -0.000 A 
ATOM     38  CD1 PHE A   9      15.228  11.385   8.419  0.00  0.00    -0.004 A 
ENDBRANCH  32  33
ENDBRANCH  20  32
ENDBRANCH  17  20
ENDBRANCH  15  16
ENDBRANCH  13  15
ENDBRANCH  10  11
ENDBRANCH   8  10
ENDBRANCH   5   6
BRANCH   5  39
ATOM     39  CB  ILE A   6       9.989  21.131  10.152  0.00  0.00    +0.027 C 
ATOM     40  CG2 ILE A   6       8.712  21.242  10.982  0.00  0.00    +0.002 C 
BRANCH  39  41
ATOM     41  CG1 ILE A   6      10.929  22.308  10.409  0.00  0.00    +0.002 C 
ATOM     42  CD1 ILE A   6      11.412  22.394  11.835  0.00  0.00    +0.000 C 
ENDBRANCH  39  41
ENDBRANCH   5  39
ENDBRANCH   3   5
BRANCH   1  43
ATOM     43  CA  GLY A   5      12.918  17.941   7.972  0.00  0.00    +0.176 C 
BRANCH  43  45
ATOM     44  C   GLY A   4      14.523  16.162   7.608  0.00  0.00    +0.243 C 
ATOM     45  N   GLY A   5      13.294  16.543   7.939  0.00  0.00    -0.295 N 
ATOM     46  H   GLY A   5      12.586  15.821   8.180  0.00  0.00    +0.150 HD
ATOM     47  O   GLY A   4      15.420  16.944   7.297  0.00  0.00    -0.273 OA
BRANCH  44  48
ATOM     48  CA  GLY A   4      14.761  14.672   7.644  0.00  0.00    +0.176 C 
BRANCH  48  50
ATOM     49  C   ILE A   3      14.971  13.386   5.624  0.00  0.00    +0.241 C 
ATOM     50  N   GLY A   4      15.547  14.141   6.550  0.00  0.00    -0.295 N 
ATOM     51  H   GLY A   4      16.564  14.352   6.490  0.00  0.00    +0.150 HD
ATOM     52  O   ILE A   3      13.770  13.112   5.629  0.00  0.00    -0.273 OA
BRANCH  49  53
ATOM     53  CA  ILE A   3      15.893  12.849   4.540  0.00  0.00    +0.149 C 
BRANCH  53  56
ATOM     54  C   MET A   2      16.428  10.497   4.424  0.00  0.00    +0.241 C 
ATOM     55  O   MET A   2      17.603  10.714   4.728  0.00  0.00    -0.273 OA
ATOM     56  N   ILE A   3      15.531  11.465   4.274  0.00  0.00    -0.297 N 
ATOM     57  H   ILE A   3      14.566  11.233   3.965  0.00  0.00    +0.150 HD
BRANCH  54  58
ATOM     58  CA  MET A   2      15.961   9.078   4.163  0.00  0.00    +0.149 C 
BRANCH  58  60
ATOM     59  C   LYS A   1      16.554   8.227   1.968  0.00  0.00    +0.238 C 
ATOM     60  N   MET A   2      16.908   8.536   3.207  0.00  0.00    -0.297 N 
ATOM     61  H   MET A   2      17.894   8.386   3.503  0.00  0.00    +0.150 HD
ATOM     62  O   LYS A   1      15.401   8.313   1.553  0.00  0.00    -0.274 OA
BRANCH  59  63
ATOM     63  CA  LYS A   1      17.672   7.714   1.083  0.00  0.00    +0.145 C 
BRANCH  63  64
ATOM     64  N   LYS A   1      17.189   6.682   0.184  0.00  0.00    -0.238 NA
ATOM     65  H   LYS A   1      16.179   6.645  -0.063  0.00  0.00    +0.142 HD
ENDBRANCH  63  64
BRANCH  63  66
ATOM     66  CB  LYS A   1      18.304   8.889   0.329  0.00  0.00    +0.026 C 
BRANCH  66  67
ATOM     67  CG  LYS A   1      18.988   9.856   1.296  0.00  0.00    -0.000 C 
BRANCH  67  68
ATOM     68  CD  LYS A   1      19.781  10.955   0.628  0.00  0.00    -0.024 C 
BRANCH  68  69
ATOM     69  CE  LYS A   1      20.525  11.762   1.693  0.00  0.00    -0.086 C 
BRANCH  69  70
ATOM     70  NZ  LYS A   1      21.343  12.864   1.128  0.00  0.00    +0.380 N 
ATOM     71  HZ1 LYS A   1      21.820  13.371   1.900  0.00  0.00    -0.089 HD
ATOM     72  HZ2 LYS A   1      20.726  13.521   0.610  0.00  0.00    -0.089 HD
ATOM     73  HZ3 LYS A   1      22.054  12.469   0.479  0.00  0.00    -0.089 HD
ENDBRANCH  69  70
ENDBRANCH  68  69
ENDBRANCH  67  68
ENDBRANCH  66  67
ENDBRANCH  63  66
ENDBRANCH  59  63
ENDBRANCH  58  60
BRANCH  58  74
ATOM     74  CB  MET A   2      16.001   8.290   5.473  0.00  0.00    +0.041 C 
BRANCH  74  75
ATOM     75  CG  MET A   2      15.480   6.871   5.379  0.00  0.00    +0.060 C 
BRANCH  75  76
ATOM     76  SD  MET A   2      13.734   6.815   4.968  0.00  0.00    -0.139 S 
ATOM     77  CE  MET A   2      13.007   7.372   6.522  0.00  0.00    +0.069 C 
ENDBRANCH  75  76
ENDBRANCH  74  75
ENDBRANCH  58  74
ENDBRANCH  54  58
ENDBRANCH  53  56
BRANCH  53  78
ATOM     78  CB  ILE A   3      15.802  13.737   3.275  0.00  0.00    +0.027 C 
ATOM     79  CG2 ILE A   3      16.875  13.311   2.277  0.00  0.00    +0.002 C 
BRANCH  78  80
ATOM     80  CG1 ILE A   3      14.402  13.659   2.663  0.00  0.00    +0.002 C 
ATOM     81  CD1 ILE A   3      14.198  14.594   1.487  0.00  0.00    +0.000 C 
ENDBRANCH  78  80
ENDBRANCH  53  78
ENDBRANCH  49  53
ENDBRANCH  48  50
ENDBRANCH  44  48
ENDBRANCH  43  45
ENDBRANCH   1  43
TORSDOF 36
REMARK  Name = ../refined-set-2016/2cen/2cen_pocket.pdb
REMARK  236 active torsions:
REMARK  status: ('A' for Active; 'I' for Inactive)
REMARK    1  A    between atoms: _1  and  _3
REMARK    2  A    between atoms: _3  and  _4
REMARK    3  A    between atoms: _3  and  _6
REMARK    4  A    between atoms: _6  and  _7
REMARK    5  A    between atoms: _7  and  _8
REMARK    6  A    between atoms: _8  and  _9
REMARK    7  A    between atoms: _18  and  _20
REMARK    8  A    between atoms: _20  and  _21
REMARK    9  A    between atoms: _20  and  _23
REMARK   10  A    between atoms: _23  and  _24
REMARK   11  A    between atoms: _27  and  _29
REMARK   12  A    between atoms: _29  and  _30
REMARK   13  A    between atoms: _29  and  _32
REMARK   14  A    between atoms: _32  and  _33
REMARK   15  A    between atoms: _36  and  _38
REMARK   16  A    between atoms: _38  and  _39
REMARK   17  A    between atoms: _38  and  _41
REMARK   18  A    between atoms: _41  and  _42
REMARK   19  A    between atoms: _45  and  _47
REMARK   20  A    between atoms: _47  and  _48
REMARK   21  A    between atoms: _47  and  _50
REMARK   22  A    between atoms: _50  and  _51
REMARK   23  A    between atoms: _54  and  _56
REMARK   24  A    between atoms: _56  and  _57
REMARK   25  A    between atoms: _56  and  _59
REMARK   26  A    between atoms: _59  and  _60
REMARK   27  A    between atoms: _63  and  _65
REMARK   28  A    between atoms: _65  and  _66
REMARK   29  A    between atoms: _68  and  _70
REMARK   30  A    between atoms: _70  and  _71
REMARK   31  A    between atoms: _74  and  _76
REMARK   32  A    between atoms: _76  and  _77
REMARK   33  A    between atoms: _76  and  _79
REMARK   34  A    between atoms: _79  and  _80
REMARK   35  A    between atoms: _83  and  _85
REMARK   36  A    between atoms: _85  and  _86
REMARK   37  A    between atoms: _85  and  _88
REMARK   38  A    between atoms: _88  and  _89
REMARK   39  A    between atoms: _92  and  _94
REMARK   40  A    between atoms: _94  and  _95
REMARK   41  A    between atoms: _94  and  _97
REMARK   42  A    between atoms: _97  and  _98
REMARK   43  A    between atoms: _101  and  _103
REMARK   44  A    between atoms: _103  and  _104
REMARK   45  A    between atoms: _103  and  _106
REMARK   46  A    between atoms: _109  and  _111
REMARK   47  A    between atoms: _111  and  _112
REMARK   48  A    between atoms: _111  and  _114
REMARK   49  A    between atoms: _114  and  _115
REMARK   50  A    between atoms: _115  and  _116
REMARK   51  A    between atoms: _116  and  _117
REMARK   52  A    between atoms: _117  and  _118
REMARK   53  A    between atoms: _122  and  _124
REMARK   54  A    between atoms: _124  and  _125
REMARK   55  A    between atoms: _124  and  _127
REMARK   56  A    between atoms: _127  and  _128
REMARK   57  A    between atoms: _128  and  _129
REMARK   58  A    between atoms: _131  and  _133
REMARK   59  A    between atoms: _133  and  _134
REMARK   60  A    between atoms: _133  and  _136
REMARK   61  A    between atoms: _136  and  _137
REMARK   62  A    between atoms: _140  and  _142
REMARK   63  A    between atoms: _142  and  _143
REMARK   64  A    between atoms: _145  and  _147
REMARK   65  A    between atoms: _147  and  _148
REMARK   66  A    between atoms: _150  and  _152
REMARK   67  A    between atoms: _152  and  _153
REMARK   68  A    between atoms: _152  and  _155
REMARK   69  A    between atoms: _155  and  _156
REMARK   70  A    between atoms: _159  and  _161
REMARK   71  A    between atoms: _161  and  _162
REMARK   72  A    between atoms: _164  and  _166
REMARK   73  A    between atoms: _166  and  _167
REMARK   74  A    between atoms: _169  and  _171
REMARK   75  A    between atoms: _171  and  _172
REMARK   76  A    between atoms: _171  and  _174
REMARK   77  A    between atoms: _174  and  _175
REMARK   78  A    between atoms: _181  and  _183
REMARK   79  A    between atoms: _183  and  _184
REMARK   80  A    between atoms: _183  and  _186
REMARK   81  A    between atoms: _186  and  _187
REMARK   82  A    between atoms: _190  and  _192
REMARK   83  A    between atoms: _192  and  _193
REMARK   84  A    between atoms: _192  and  _195
REMARK   85  A    between atoms: _198  and  _200
REMARK   86  A    between atoms: _200  and  _201
REMARK   87  A    between atoms: _200  and  _203
REMARK   88  A    between atoms: _203  and  _204
REMARK   89  A    between atoms: _207  and  _209
REMARK   90  A    between atoms: _209  and  _210
REMARK   91  A    between atoms: _209  and  _212
REMARK   92  A    between atoms: _212  and  _213
REMARK   93  A    between atoms: _217  and  _218
REMARK   94  A    between atoms: _223  and  _225
REMARK   95  A    between atoms: _225  and  _226
REMARK   96  A    between atoms: _225  and  _228
REMARK   97  A    between atoms: _231  and  _233
REMARK   98  A    between atoms: _233  and  _234
REMARK   99  A    between atoms: _233  and  _236
REMARK  100  A    between atoms: _236  and  _237
REMARK  101  A    between atoms: _242  and  _244
REMARK  102  A    between atoms: _244  and  _245
REMARK  103  A    between atoms: _244  and  _247
REMARK  104  A    between atoms: _247  and  _248
REMARK  105  A    between atoms: _251  and  _253
REMARK  106  A    between atoms: _253  and  _254
REMARK  107  A    between atoms: _253  and  _256
REMARK  108  A    between atoms: _256  and  _257
REMARK  109  A    between atoms: _260  and  _262
REMARK  110  A    between atoms: _262  and  _263
REMARK  111  A    between atoms: _265  and  _267
REMARK  112  A    between atoms: _267  and  _268
REMARK  113  A    between atoms: _267  and  _270
REMARK  114  A    between atoms: _270  and  _271
REMARK  115  A    between atoms: _271  and  _272
REMARK  116  A    between atoms: _272  and  _273
REMARK  117  A    between atoms: _282  and  _284
REMARK  118  A    between atoms: _284  and  _285
REMARK  119  A    between atoms: _284  and  _287
REMARK  120  A    between atoms: _287  and  _288
REMARK  121  A    between atoms: _288  and  _289
REMARK  122  A    between atoms: _289  and  _290
REMARK  123  A    between atoms: _299  and  _301
REMARK  124  A    between atoms: _301  and  _302
REMARK  125  A    between atoms: _301  and  _304
REMARK  126  A    between atoms: _304  and  _305
REMARK  127  A    between atoms: _308  and  _310
REMARK  128  A    between atoms: _310  and  _311
REMARK  129  A    between atoms: _310  and  _313
REMARK  130  A    between atoms: _313  and  _314
REMARK  131  A    between atoms: _317  and  _319
REMARK  132  A    between atoms: _319  and  _320
REMARK  133  A    between atoms: _319  and  _322
REMARK  134  A    between atoms: _322  and  _323
REMARK  135  A    between atoms: _326  and  _328
REMARK  136  A    between atoms: _328  and  _329
REMARK  137  A    between atoms: _328  and  _331
REMARK  138  A    between atoms: _331  and  _332
REMARK  139  A    between atoms: _335  and  _337
REMARK  140  A    between atoms: _337  and  _338
REMARK  141  A    between atoms: _340  and  _342
REMARK  142  A    between atoms: _342  and  _343
REMARK  143  A    between atoms: _346  and  _348
REMARK  144  A    between atoms: _348  and  _349
REMARK  145  A    between atoms: _348  and  _351
REMARK  146  A    between atoms: _351  and  _352
REMARK  147  A    between atoms: _355  and  _357
REMARK  148  A    between atoms: _357  and  _358
REMARK  149  A    between atoms: _357  and  _360
REMARK  150  A    between atoms: _360  and  _361
REMARK  151  A    between atoms: _364  and  _366
REMARK  152  A    between atoms: _366  and  _367
REMARK  153  A    between atoms: _366  and  _369
REMARK  154  A    between atoms: _369  and  _370
REMARK  155  A    between atoms: _373  and  _375
REMARK  156  A    between atoms: _375  and  _376
REMARK  157  A    between atoms: _375  and  _378
REMARK  158  A    between atoms: _381  and  _383
REMARK  159  A    between atoms: _383  and  _384
REMARK  160  A    between atoms: _383  and  _386
REMARK  161  A    between atoms: _386  and  _387
REMARK  162  A    between atoms: _390  and  _392
REMARK  163  A    between atoms: _392  and  _393
REMARK  164  A    between atoms: _392  and  _395
REMARK  165  A    between atoms: _395  and  _396
REMARK  166  A    between atoms: _396  and  _397
REMARK  167  A    between atoms: _397  and  _398
REMARK  168  A    between atoms: _398  and  _399
REMARK  169  A    between atoms: _403  and  _405
REMARK  170  A    between atoms: _405  and  _406
REMARK  171  A    between atoms: _405  and  _408
REMARK  172  A    between atoms: _408  and  _409
REMARK  173  A    between atoms: _409  and  _410
REMARK  174  A    between atoms: _412  and  _414
REMARK  175  A    between atoms: _414  and  _415
REMARK  176  A    between atoms: _414  and  _417
REMARK  177  A    between atoms: _417  and  _418
REMARK  178  A    between atoms: _421  and  _423
REMARK  179  A    between atoms: _423  and  _424
REMARK  180  A    between atoms: _426  and  _428
REMARK  181  A    between atoms: _428  and  _429
REMARK  182  A    between atoms: _431  and  _433
REMARK  183  A    between atoms: _433  and  _434
REMARK  184  A    between atoms: _433  and  _436
REMARK  185  A    between atoms: _436  and  _437
REMARK  186  A    between atoms: _440  and  _442
REMARK  187  A    between atoms: _442  and  _443
REMARK  188  A    between atoms: _445  and  _447
REMARK  189  A    between atoms: _447  and  _448
REMARK  190  A    between atoms: _450  and  _452
REMARK  191  A    between atoms: _452  and  _453
REMARK  192  A    between atoms: _452  and  _455
REMARK  193  A    between atoms: _455  and  _456
REMARK  194  A    between atoms: _462  and  _464
REMARK  195  A    between atoms: _464  and  _465
REMARK  196  A    between atoms: _464  and  _467
REMARK  197  A    between atoms: _467  and  _468
REMARK  198  A    between atoms: _471  and  _473
REMARK  199  A    between atoms: _473  and  _474
REMARK  200  A    between atoms: _473  and  _476
REMARK  201  A    between atoms: _479  and  _481
REMARK  202  A    between atoms: _481  and  _482
REMARK  203  A    between atoms: _481  and  _484
REMARK  204  A    between atoms: _484  and  _485
REMARK  205  A    between atoms: _488  and  _490
REMARK  206  A    between atoms: _490  and  _491
REMARK  207  A    between atoms: _490  and  _493
REMARK  208  A    between atoms: _493  and  _494
REMARK  209  A    between atoms: _498  and  _499
REMARK  210  A    between atoms: _504  and  _506
REMARK  211  A    between atoms: _506  and  _507
REMARK  212  A    between atoms: _506  and  _509
REMARK  213  A    between atoms: _512  and  _514
REMARK  214  A    between atoms: _514  and  _515
REMARK  215  A    between atoms: _514  and  _517
REMARK  216  A    between atoms: _517  and  _518
REMARK  217  A    between atoms: _523  and  _525
REMARK  218  A    between atoms: _525  and  _526
REMARK  219  A    between atoms: _525  and  _528
REMARK  220  A    between atoms: _528  and  _529
REMARK  221  A    between atoms: _532  and  _534
REMARK  222  A    between atoms: _534  and  _535
REMARK  223  A    between atoms: _534  and  _537
REMARK  224  A    between atoms: _537  and  _538
REMARK  225  A    between atoms: _541  and  _543
REMARK  226  A    between atoms: _543  and  _544
REMARK  227  A    between atoms: _546  and  _548
REMARK  228  A    between atoms: _548  and  _549
REMARK  229  A    between atoms: _548  and  _551
REMARK  230  A    between atoms: _551  and  _552
REMARK  231  A    between atoms: _552  and  _553
REMARK  232  A    between atoms: _553  and  _554
REMARK  233  A    between atoms: _563  and  _565
REMARK  234  A    between atoms: _565  and  _566
REMARK  235  A    between atoms: _565  and  _568
REMARK  236  A    between atoms: _568  and  _569
REMARK                            x       y       z     vdW  Elec       q    Type
REMARK                         _______ _______ _______ _____ _____    ______ ____
ROOT
ATOM      1  CA  VAL A   1      12.989   9.375  -1.339  0.00  0.00    +0.133 C 
ENDROOT
BRANCH   1   2
ATOM      2  CB  VAL A   1      13.564  10.816  -1.341  0.00  0.00    +0.023 C 
ATOM      3  CG2 VAL A   1      12.654  11.742  -0.554  0.00  0.00    +0.002 C 
ATOM      4  CG1 VAL A   1      14.967  10.822  -0.746  0.00  0.00    +0.002 C 
ENDBRANCH   1   2
BRANCH   1   5
ATOM      5  N   VAL A   1      12.936   8.824   0.006  0.00  0.00    -0.239 NA
ATOM      6  H   VAL A   1      13.812   8.487   0.454  0.00  0.00    +0.142 HD
ENDBRANCH   1   5
BRANCH   1   7
ATOM      7  C   VAL A   1      13.865   8.500  -2.226  0.00  0.00    +0.224 C 
ATOM      8  O   VAL A   1      14.584   7.630  -1.739  0.00  0.00    -0.287 OA
ENDBRANCH   1   7
TORSDOF 3
REMARK  Name = ../refined-set-2016/2cen/2cen_pocket.pdb
REMARK  236 active torsions:
REMARK  status: ('A' for Active; 'I' for Inactive)
REMARK    1  A    between atoms: _1  and  _3
REMARK    2  A    between atoms: _3  and  _4
REMARK    3  A    between atoms: _3  and  _6
REMARK    4  A    between atoms: _6  and  _7
REMARK    5  A    between atoms: _7  and  _8
REMARK    6  A    between atoms: _8  and  _9
REMARK    7  A    between atoms: _18  and  _20
REMARK    8  A    between atoms: _20  and  _21
REMARK    9  A    between atoms: _20  and  _23
REMARK   10  A    between atoms: _23  and  _24
REMARK   11  A    between atoms: _27  and  _29
REMARK   12  A    between atoms: _29  and  _30
REMARK   13  A    between atoms: _29  and  _32
REMARK   14  A    between atoms: _32  and  _33
REMARK   15  A    between atoms: _36  and  _38
REMARK   16  A    between atoms: _38  and  _39
REMARK   17  A    between atoms: _38  and  _41
REMARK   18  A    between atoms: _41  and  _42
REMARK   19  A    between atoms: _45  and  _47
REMARK   20  A    between atoms: _47  and  _48
REMARK   21  A    between atoms: _47  and  _50
REMARK   22  A    between atoms: _50  and  _51
REMARK   23  A    between atoms: _54  and  _56
REMARK   24  A    between atoms: _56  and  _57
REMARK   25  A    between atoms: _56  and  _59
REMARK   26  A    between atoms: _59  and  _60
REMARK   27  A    between atoms: _63  and  _65
REMARK   28  A    between atoms: _65  and  _66
REMARK   29  A    between atoms: _68  and  _70
REMARK   30  A    between atoms: _70  and  _71
REMARK   31  A    between atoms: _74  and  _76
REMARK   32  A    between atoms: _76  and  _77
REMARK   33  A    between atoms: _76  and  _79
REMARK   34  A    between atoms: _79  and  _80
REMARK   35  A    between atoms: _83  and  _85
REMARK   36  A    between atoms: _85  and  _86
REMARK   37  A    between atoms: _85  and  _88
REMARK   38  A    between atoms: _88  and  _89
REMARK   39  A    between atoms: _92  and  _94
REMARK   40  A    between atoms: _94  and  _95
REMARK   41  A    between atoms: _94  and  _97
REMARK   42  A    between atoms: _97  and  _98
REMARK   43  A    between atoms: _101  and  _103
REMARK   44  A    between atoms: _103  and  _104
REMARK   45  A    between atoms: _103  and  _106
REMARK   46  A    between atoms: _109  and  _111
REMARK   47  A    between atoms: _111  and  _112
REMARK   48  A    between atoms: _111  and  _114
REMARK   49  A    between atoms: _114  and  _115
REMARK   50  A    between atoms: _115  and  _116
REMARK   51  A    between atoms: _116  and  _117
REMARK   52  A    between atoms: _117  and  _118
REMARK   53  A    between atoms: _122  and  _124
REMARK   54  A    between atoms: _124  and  _125
REMARK   55  A    between atoms: _124  and  _127
REMARK   56  A    between atoms: _127  and  _128
REMARK   57  A    between atoms: _128  and  _129
REMARK   58  A    between atoms: _131  and  _133
REMARK   59  A    between atoms: _133  and  _134
REMARK   60  A    between atoms: _133  and  _136
REMARK   61  A    between atoms: _136  and  _137
REMARK   62  A    between atoms: _140  and  _142
REMARK   63  A    between atoms: _142  and  _143
REMARK   64  A    between atoms: _145  and  _147
REMARK   65  A    between atoms: _147  and  _148
REMARK   66  A    between atoms: _150  and  _152
REMARK   67  A    between atoms: _152  and  _153
REMARK   68  A    between atoms: _152  and  _155
REMARK   69  A    between atoms: _155  and  _156
REMARK   70  A    between atoms: _159  and  _161
REMARK   71  A    between atoms: _161  and  _162
REMARK   72  A    between atoms: _164  and  _166
REMARK   73  A    between atoms: _166  and  _167
REMARK   74  A    between atoms: _169  and  _171
REMARK   75  A    between atoms: _171  and  _172
REMARK   76  A    between atoms: _171  and  _174
REMARK   77  A    between atoms: _174  and  _175
REMARK   78  A    between atoms: _181  and  _183
REMARK   79  A    between atoms: _183  and  _184
REMARK   80  A    between atoms: _183  and  _186
REMARK   81  A    between atoms: _186  and  _187
REMARK   82  A    between atoms: _190  and  _192
REMARK   83  A    between atoms: _192  and  _193
REMARK   84  A    between atoms: _192  and  _195
REMARK   85  A    between atoms: _198  and  _200
REMARK   86  A    between atoms: _200  and  _201
REMARK   87  A    between atoms: _200  and  _203
REMARK   88  A    between atoms: _203  and  _204
REMARK   89  A    between atoms: _207  and  _209
REMARK   90  A    between atoms: _209  and  _210
REMARK   91  A    between atoms: _209  and  _212
REMARK   92  A    between atoms: _212  and  _213
REMARK   93  A    between atoms: _217  and  _218
REMARK   94  A    between atoms: _223  and  _225
REMARK   95  A    between atoms: _225  and  _226
REMARK   96  A    between atoms: _225  and  _228
REMARK   97  A    between atoms: _231  and  _233
REMARK   98  A    between atoms: _233  and  _234
REMARK   99  A    between atoms: _233  and  _236
REMARK  100  A    between atoms: _236  and  _237
REMARK  101  A    between atoms: _242  and  _244
REMARK  102  A    between atoms: _244  and  _245
REMARK  103  A    between atoms: _244  and  _247
REMARK  104  A    between atoms: _247  and  _248
REMARK  105  A    between atoms: _251  and  _253
REMARK  106  A    between atoms: _253  and  _254
REMARK  107  A    between atoms: _253  and  _256
REMARK  108  A    between atoms: _256  and  _257
REMARK  109  A    between atoms: _260  and  _262
REMARK  110  A    between atoms: _262  and  _263
REMARK  111  A    between atoms: _265  and  _267
REMARK  112  A    between atoms: _267  and  _268
REMARK  113  A    between atoms: _267  and  _270
REMARK  114  A    between atoms: _270  and  _271
REMARK  115  A    between atoms: _271  and  _272
REMARK  116  A    between atoms: _272  and  _273
REMARK  117  A    between atoms: _282  and  _284
REMARK  118  A    between atoms: _284  and  _285
REMARK  119  A    between atoms: _284  and  _287
REMARK  120  A    between atoms: _287  and  _288
REMARK  121  A    between atoms: _288  and  _289
REMARK  122  A    between atoms: _289  and  _290
REMARK  123  A    between atoms: _299  and  _301
REMARK  124  A    between atoms: _301  and  _302
REMARK  125  A    between atoms: _301  and  _304
REMARK  126  A    between atoms: _304  and  _305
REMARK  127  A    between atoms: _308  and  _310
REMARK  128  A    between atoms: _310  and  _311
REMARK  129  A    between atoms: _310  and  _313
REMARK  130  A    between atoms: _313  and  _314
REMARK  131  A    between atoms: _317  and  _319
REMARK  132  A    between atoms: _319  and  _320
REMARK  133  A    between atoms: _319  and  _322
REMARK  134  A    between atoms: _322  and  _323
REMARK  135  A    between atoms: _326  and  _328
REMARK  136  A    between atoms: _328  and  _329
REMARK  137  A    between atoms: _328  and  _331
REMARK  138  A    between atoms: _331  and  _332
REMARK  139  A    between atoms: _335  and  _337
REMARK  140  A    between atoms: _337  and  _338
REMARK  141  A    between atoms: _340  and  _342
REMARK  142  A    between atoms: _342  and  _343
REMARK  143  A    between atoms: _346  and  _348
REMARK  144  A    between atoms: _348  and  _349
REMARK  145  A    between atoms: _348  and  _351
REMARK  146  A    between atoms: _351  and  _352
REMARK  147  A    between atoms: _355  and  _357
REMARK  148  A    between atoms: _357  and  _358
REMARK  149  A    between atoms: _357  and  _360
REMARK  150  A    between atoms: _360  and  _361
REMARK  151  A    between atoms: _364  and  _366
REMARK  152  A    between atoms: _366  and  _367
REMARK  153  A    between atoms: _366  and  _369
REMARK  154  A    between atoms: _369  and  _370
REMARK  155  A    between atoms: _373  and  _375
REMARK  156  A    between atoms: _375  and  _376
REMARK  157  A    between atoms: _375  and  _378
REMARK  158  A    between atoms: _381  and  _383
REMARK  159  A    between atoms: _383  and  _384
REMARK  160  A    between atoms: _383  and  _386
REMARK  161  A    between atoms: _386  and  _387
REMARK  162  A    between atoms: _390  and  _392
REMARK  163  A    between atoms: _392  and  _393
REMARK  164  A    between atoms: _392  and  _395
REMARK  165  A    between atoms: _395  and  _396
REMARK  166  A    between atoms: _396  and  _397
REMARK  167  A    between atoms: _397  and  _398
REMARK  168  A    between atoms: _398  and  _399
REMARK  169  A    between atoms: _403  and  _405
REMARK  170  A    between atoms: _405  and  _406
REMARK  171  A    between atoms: _405  and  _408
REMARK  172  A    between atoms: _408  and  _409
REMARK  173  A    between atoms: _409  and  _410
REMARK  174  A    between atoms: _412  and  _414
REMARK  175  A    between atoms: _414  and  _415
REMARK  176  A    between atoms: _414  and  _417
REMARK  177  A    between atoms: _417  and  _418
REMARK  178  A    between atoms: _421  and  _423
REMARK  179  A    between atoms: _423  and  _424
REMARK  180  A    between atoms: _426  and  _428
REMARK  181  A    between atoms: _428  and  _429
REMARK  182  A    between atoms: _431  and  _433
REMARK  183  A    between atoms: _433  and  _434
REMARK  184  A    between atoms: _433  and  _436
REMARK  185  A    between atoms: _436  and  _437
REMARK  186  A    between atoms: _440  and  _442
REMARK  187  A    between atoms: _442  and  _443
REMARK  188  A    between atoms: _445  and  _447
REMARK  189  A    between atoms: _447  and  _448
REMARK  190  A    between atoms: _450  and  _452
REMARK  191  A    between atoms: _452  and  _453
REMARK  192  A    between atoms: _452  and  _455
REMARK  193  A    between atoms: _455  and  _456
REMARK  194  A    between atoms: _462  and  _464
REMARK  195  A    between atoms: _464  and  _465
REMARK  196  A    between atoms: _464  and  _467
REMARK  197  A    between atoms: _467  and  _468
REMARK  198  A    between atoms: _471  and  _473
REMARK  199  A    between atoms: _473  and  _474
REMARK  200  A    between atoms: _473  and  _476
REMARK  201  A    between atoms: _479  and  _481
REMARK  202  A    between atoms: _481  and  _482
REMARK  203  A    between atoms: _481  and  _484
REMARK  204  A    between atoms: _484  and  _485
REMARK  205  A    between atoms: _488  and  _490
REMARK  206  A    between atoms: _490  and  _491
REMARK  207  A    between atoms: _490  and  _493
REMARK  208  A    between atoms: _493  and  _494
REMARK  209  A    between atoms: _498  and  _499
REMARK  210  A    between atoms: _504  and  _506
REMARK  211  A    between atoms: _506  and  _507
REMARK  212  A    between atoms: _506  and  _509
REMARK  213  A    between atoms: _512  and  _514
REMARK  214  A    between atoms: _514  and  _515
REMARK  215  A    between atoms: _514  and  _517
REMARK  216  A    between atoms: _517  and  _518
REMARK  217  A    between atoms: _523  and  _525
REMARK  218  A    between atoms: _525  and  _526
REMARK  219  A    between atoms: _525  and  _528
REMARK  220  A    between atoms: _528  and  _529
REMARK  221  A    between atoms: _532  and  _534
REMARK  222  A    between atoms: _534  and  _535
REMARK  223  A    between atoms: _534  and  _537
REMARK  224  A    between atoms: _537  and  _538
REMARK  225  A    between atoms: _541  and  _543
REMARK  226  A    between atoms: _543  and  _544
REMARK  227  A    between atoms: _546  and  _548
REMARK  228  A    between atoms: _548  and  _549
REMARK  229  A    between atoms: _548  and  _551
REMARK  230  A    between atoms: _551  and  _552
REMARK  231  A    between atoms: _552  and  _553
REMARK  232  A    between atoms: _553  and  _554
REMARK  233  A    between atoms: _563  and  _565
REMARK  234  A    between atoms: _565  and  _566
REMARK  235  A    between atoms: _565  and  _568
REMARK  236  A    between atoms: _568  and  _569
REMARK                            x       y       z     vdW  Elec       q    Type
REMARK                         _______ _______ _______ _____ _____    ______ ____
ROOT
ATOM      1  CA  LEU A   1      16.032  13.177  -4.906  0.00  0.00    +0.133 C 
ENDROOT
BRANCH   1   2
ATOM      2  N   LEU A   1      16.863  14.118  -5.643  0.00  0.00    -0.239 NA
ATOM      3  H   LEU A   1      16.925  15.104  -5.317  0.00  0.00    +0.142 HD
ENDBRANCH   1   2
BRANCH   1   4
ATOM      4  C   LEU A   1      14.587  13.380  -5.347  0.00  0.00    +0.224 C 
ATOM      5  O   LEU A   1      14.177  14.499  -5.669  0.00  0.00    -0.287 OA
ENDBRANCH   1   4
BRANCH   1   6
ATOM      6  CB  LEU A   1      16.156  13.422  -3.398  0.00  0.00    +0.025 C 
BRANCH   6   7
ATOM      7  CG  LEU A   1      17.576  13.508  -2.830  0.00  0.00    +0.002 C 
ATOM      8  CD2 LEU A   1      17.515  13.787  -1.334  0.00  0.00    +0.000 C 
ATOM      9  CD1 LEU A   1      18.324  12.212  -3.102  0.00  0.00    +0.000 C 
ENDBRANCH   6   7
ENDBRANCH   1   6
TORSDOF 4
REMARK  Name = ../refined-set-2016/2cen/2cen_pocket.pdb
REMARK  236 active torsions:
REMARK  status: ('A' for Active; 'I' for Inactive)
REMARK    1  A    between atoms: _1  and  _3
REMARK    2  A    between atoms: _3  and  _4
REMARK    3  A    between atoms: _3  and  _6
REMARK    4  A    between atoms: _6  and  _7
REMARK    5  A    between atoms: _7  and  _8
REMARK    6  A    between atoms: _8  and  _9
REMARK    7  A    between atoms: _18  and  _20
REMARK    8  A    between atoms: _20  and  _21
REMARK    9  A    between atoms: _20  and  _23
REMARK   10  A    between atoms: _23  and  _24
REMARK   11  A    between atoms: _27  and  _29
REMARK   12  A    between atoms: _29  and  _30
REMARK   13  A    between atoms: _29  and  _32
REMARK   14  A    between atoms: _32  and  _33
REMARK   15  A    between atoms: _36  and  _38
REMARK   16  A    between atoms: _38  and  _39
REMARK   17  A    between atoms: _38  and  _41
REMARK   18  A    between atoms: _41  and  _42
REMARK   19  A    between atoms: _45  and  _47
REMARK   20  A    between atoms: _47  and  _48
REMARK   21  A    between atoms: _47  and  _50
REMARK   22  A    between atoms: _50  and  _51
REMARK   23  A    between atoms: _54  and  _56
REMARK   24  A    between atoms: _56  and  _57
REMARK   25  A    between atoms: _56  and  _59
REMARK   26  A    between atoms: _59  and  _60
REMARK   27  A    between atoms: _63  and  _65
REMARK   28  A    between atoms: _65  and  _66
REMARK   29  A    between atoms: _68  and  _70
REMARK   30  A    between atoms: _70  and  _71
REMARK   31  A    between atoms: _74  and  _76
REMARK   32  A    between atoms: _76  and  _77
REMARK   33  A    between atoms: _76  and  _79
REMARK   34  A    between atoms: _79  and  _80
REMARK   35  A    between atoms: _83  and  _85
REMARK   36  A    between atoms: _85  and  _86
REMARK   37  A    between atoms: _85  and  _88
REMARK   38  A    between atoms: _88  and  _89
REMARK   39  A    between atoms: _92  and  _94
REMARK   40  A    between atoms: _94  and  _95
REMARK   41  A    between atoms: _94  and  _97
REMARK   42  A    between atoms: _97  and  _98
REMARK   43  A    between atoms: _101  and  _103
REMARK   44  A    between atoms: _103  and  _104
REMARK   45  A    between atoms: _103  and  _106
REMARK   46  A    between atoms: _109  and  _111
REMARK   47  A    between atoms: _111  and  _112
REMARK   48  A    between atoms: _111  and  _114
REMARK   49  A    between atoms: _114  and  _115
REMARK   50  A    between atoms: _115  and  _116
REMARK   51  A    between atoms: _116  and  _117
REMARK   52  A    between atoms: _117  and  _118
REMARK   53  A    between atoms: _122  and  _124
REMARK   54  A    between atoms: _124  and  _125
REMARK   55  A    between atoms: _124  and  _127
REMARK   56  A    between atoms: _127  and  _128
REMARK   57  A    between atoms: _128  and  _129
REMARK   58  A    between atoms: _131  and  _133
REMARK   59  A    between atoms: _133  and  _134
REMARK   60  A    between atoms: _133  and  _136
REMARK   61  A    between atoms: _136  and  _137
REMARK   62  A    between atoms: _140  and  _142
REMARK   63  A    between atoms: _142  and  _143
REMARK   64  A    between atoms: _145  and  _147
REMARK   65  A    between atoms: _147  and  _148
REMARK   66  A    between atoms: _150  and  _152
REMARK   67  A    between atoms: _152  and  _153
REMARK   68  A    between atoms: _152  and  _155
REMARK   69  A    between atoms: _155  and  _156
REMARK   70  A    between atoms: _159  and  _161
REMARK   71  A    between atoms: _161  and  _162
REMARK   72  A    between atoms: _164  and  _166
REMARK   73  A    between atoms: _166  and  _167
REMARK   74  A    between atoms: _169  and  _171
REMARK   75  A    between atoms: _171  and  _172
REMARK   76  A    between atoms: _171  and  _174
REMARK   77  A    between atoms: _174  and  _175
REMARK   78  A    between atoms: _181  and  _183
REMARK   79  A    between atoms: _183  and  _184
REMARK   80  A    between atoms: _183  and  _186
REMARK   81  A    between atoms: _186  and  _187
REMARK   82  A    between atoms: _190  and  _192
REMARK   83  A    between atoms: _192  and  _193
REMARK   84  A    between atoms: _192  and  _195
REMARK   85  A    between atoms: _198  and  _200
REMARK   86  A    between atoms: _200  and  _201
REMARK   87  A    between atoms: _200  and  _203
REMARK   88  A    between atoms: _203  and  _204
REMARK   89  A    between atoms: _207  and  _209
REMARK   90  A    between atoms: _209  and  _210
REMARK   91  A    between atoms: _209  and  _212
REMARK   92  A    between atoms: _212  and  _213
REMARK   93  A    between atoms: _217  and  _218
REMARK   94  A    between atoms: _223  and  _225
REMARK   95  A    between atoms: _225  and  _226
REMARK   96  A    between atoms: _225  and  _228
REMARK   97  A    between atoms: _231  and  _233
REMARK   98  A    between atoms: _233  and  _234
REMARK   99  A    between atoms: _233  and  _236
REMARK  100  A    between atoms: _236  and  _237
REMARK  101  A    between atoms: _242  and  _244
REMARK  102  A    between atoms: _244  and  _245
REMARK  103  A    between atoms: _244  and  _247
REMARK  104  A    between atoms: _247  and  _248
REMARK  105  A    between atoms: _251  and  _253
REMARK  106  A    between atoms: _253  and  _254
REMARK  107  A    between atoms: _253  and  _256
REMARK  108  A    between atoms: _256  and  _257
REMARK  109  A    between atoms: _260  and  _262
REMARK  110  A    between atoms: _262  and  _263
REMARK  111  A    between atoms: _265  and  _267
REMARK  112  A    between atoms: _267  and  _268
REMARK  113  A    between atoms: _267  and  _270
REMARK  114  A    between atoms: _270  and  _271
REMARK  115  A    between atoms: _271  and  _272
REMARK  116  A    between atoms: _272  and  _273
REMARK  117  A    between atoms: _282  and  _284
REMARK  118  A    between atoms: _284  and  _285
REMARK  119  A    between atoms: _284  and  _287
REMARK  120  A    between atoms: _287  and  _288
REMARK  121  A    between atoms: _288  and  _289
REMARK  122  A    between atoms: _289  and  _290
REMARK  123  A    between atoms: _299  and  _301
REMARK  124  A    between atoms: _301  and  _302
REMARK  125  A    between atoms: _301  and  _304
REMARK  126  A    between atoms: _304  and  _305
REMARK  127  A    between atoms: _308  and  _310
REMARK  128  A    between atoms: _310  and  _311
REMARK  129  A    between atoms: _310  and  _313
REMARK  130  A    between atoms: _313  and  _314
REMARK  131  A    between atoms: _317  and  _319
REMARK  132  A    between atoms: _319  and  _320
REMARK  133  A    between atoms: _319  and  _322
REMARK  134  A    between atoms: _322  and  _323
REMARK  135  A    between atoms: _326  and  _328
REMARK  136  A    between atoms: _328  and  _329
REMARK  137  A    between atoms: _328  and  _331
REMARK  138  A    between atoms: _331  and  _332
REMARK  139  A    between atoms: _335  and  _337
REMARK  140  A    between atoms: _337  and  _338
REMARK  141  A    between atoms: _340  and  _342
REMARK  142  A    between atoms: _342  and  _343
REMARK  143  A    between atoms: _346  and  _348
REMARK  144  A    between atoms: _348  and  _349
REMARK  145  A    between atoms: _348  and  _351
REMARK  146  A    between atoms: _351  and  _352
REMARK  147  A    between atoms: _355  and  _357
REMARK  148  A    between atoms: _357  and  _358
REMARK  149  A    between atoms: _357  and  _360
REMARK  150  A    between atoms: _360  and  _361
REMARK  151  A    between atoms: _364  and  _366
REMARK  152  A    between atoms: _366  and  _367
REMARK  153  A    between atoms: _366  and  _369
REMARK  154  A    between atoms: _369  and  _370
REMARK  155  A    between atoms: _373  and  _375
REMARK  156  A    between atoms: _375  and  _376
REMARK  157  A    between atoms: _375  and  _378
REMARK  158  A    between atoms: _381  and  _383
REMARK  159  A    between atoms: _383  and  _384
REMARK  160  A    between atoms: _383  and  _386
REMARK  161  A    between atoms: _386  and  _387
REMARK  162  A    between atoms: _390  and  _392
REMARK  163  A    between atoms: _392  and  _393
REMARK  164  A    between atoms: _392  and  _395
REMARK  165  A    between atoms: _395  and  _396
REMARK  166  A    between atoms: _396  and  _397
REMARK  167  A    between atoms: _397  and  _398
REMARK  168  A    between atoms: _398  and  _399
REMARK  169  A    between atoms: _403  and  _405
REMARK  170  A    between atoms: _405  and  _406
REMARK  171  A    between atoms: _405  and  _408
REMARK  172  A    between atoms: _408  and  _409
REMARK  173  A    between atoms: _409  and  _410
REMARK  174  A    between atoms: _412  and  _414
REMARK  175  A    between atoms: _414  and  _415
REMARK  176  A    between atoms: _414  and  _417
REMARK  177  A    between atoms: _417  and  _418
REMARK  178  A    between atoms: _421  and  _423
REMARK  179  A    between atoms: _423  and  _424
REMARK  180  A    between atoms: _426  and  _428
REMARK  181  A    between atoms: _428  and  _429
REMARK  182  A    between atoms: _431  and  _433
REMARK  183  A    between atoms: _433  and  _434
REMARK  184  A    between atoms: _433  and  _436
REMARK  185  A    between atoms: _436  and  _437
REMARK  186  A    between atoms: _440  and  _442
REMARK  187  A    between atoms: _442  and  _443
REMARK  188  A    between atoms: _445  and  _447
REMARK  189  A    between atoms: _447  and  _448
REMARK  190  A    between atoms: _450  and  _452
REMARK  191  A    between atoms: _452  and  _453
REMARK  192  A    between atoms: _452  and  _455
REMARK  193  A    between atoms: _455  and  _456
REMARK  194  A    between atoms: _462  and  _464
REMARK  195  A    between atoms: _464  and  _465
REMARK  196  A    between atoms: _464  and  _467
REMARK  197  A    between atoms: _467  and  _468
REMARK  198  A    between atoms: _471  and  _473
REMARK  199  A    between atoms: _473  and  _474
REMARK  200  A    between atoms: _473  and  _476
REMARK  201  A    between atoms: _479  and  _481
REMARK  202  A    between atoms: _481  and  _482
REMARK  203  A    between atoms: _481  and  _484
REMARK  204  A    between atoms: _484  and  _485
REMARK  205  A    between atoms: _488  and  _490
REMARK  206  A    between atoms: _490  and  _491
REMARK  207  A    between atoms: _490  and  _493
REMARK  208  A    between atoms: _493  and  _494
REMARK  209  A    between atoms: _498  and  _499
REMARK  210  A    between atoms: _504  and  _506
REMARK  211  A    between atoms: _506  and  _507
REMARK  212  A    between atoms: _506  and  _509
REMARK  213  A    between atoms: _512  and  _514
REMARK  214  A    between atoms: _514  and  _515
REMARK  215  A    between atoms: _514  and  _517
REMARK  216  A    between atoms: _517  and  _518
REMARK  217  A    between atoms: _523  and  _525
REMARK  218  A    between atoms: _525  and  _526
REMARK  219  A    between atoms: _525  and  _528
REMARK  220  A    between atoms: _528  and  _529
REMARK  221  A    between atoms: _532  and  _534
REMARK  222  A    between atoms: _534  and  _535
REMARK  223  A    between atoms: _534  and  _537
REMARK  224  A    between atoms: _537  and  _538
REMARK  225  A    between atoms: _541  and  _543
REMARK  226  A    between atoms: _543  and  _544
REMARK  227  A    between atoms: _546  and  _548
REMARK  228  A    between atoms: _548  and  _549
REMARK  229  A    between atoms: _548  and  _551
REMARK  230  A    between atoms: _551  and  _552
REMARK  231  A    between atoms: _552  and  _553
REMARK  232  A    between atoms: _553  and  _554
REMARK  233  A    between atoms: _563  and  _565
REMARK  234  A    between atoms: _565  and  _566
REMARK  235  A    between atoms: _565  and  _568
REMARK  236  A    between atoms: _568  and  _569
REMARK                            x       y       z     vdW  Elec       q    Type
REMARK                         _______ _______ _______ _____ _____    ______ ____
ROOT
ATOM      1  C   ILE A   5      14.845  22.029  -3.865  0.00  0.00    +0.241 C 
ATOM      2  N   ILE A   6      15.526  23.151  -4.080  0.00  0.00    -0.297 N 
ATOM      3  H   ILE A   6      15.083  24.064  -3.851  0.00  0.00    +0.150 HD
ATOM      4  O   ILE A   5      15.273  20.912  -4.149  0.00  0.00    -0.273 OA
ENDROOT
BRANCH   2   5
ATOM      5  CA  ILE A   6      16.877  23.136  -4.628  0.00  0.00    +0.149 C 
BRANCH   5   6
ATOM      6  C   ILE A   6      17.785  23.351  -3.426  0.00  0.00    +0.241 C 
ATOM      7  O   ILE A   6      17.782  24.433  -2.823  0.00  0.00    -0.273 OA
ATOM      8  N   GLY A   7      18.549  22.317  -3.085  0.00  0.00    -0.295 N 
ATOM      9  H   GLY A   7      18.512  21.447  -3.654  0.00  0.00    +0.150 HD
BRANCH   8  10
ATOM     10  CA  GLY A   7      19.434  22.376  -1.935  0.00  0.00    +0.176 C 
BRANCH  10  11
ATOM     11  C   GLY A   7      20.863  22.791  -2.222  0.00  0.00    +0.243 C 
ATOM     12  N   ARG A   8      21.672  22.842  -1.168  0.00  0.00    -0.297 N 
ATOM     13  H   ARG A   8      21.306  22.576  -0.232  0.00  0.00    +0.150 HD
ATOM     14  O   GLY A   7      21.234  23.046  -3.365  0.00  0.00    -0.273 OA
BRANCH  12  15
ATOM     15  CA  ARG A   8      23.062  23.263  -1.297  0.00  0.00    +0.149 C 
BRANCH  15  16
ATOM     16  C   ARG A   8      23.898  22.464  -2.285  0.00  0.00    +0.241 C 
ATOM     17  N   ASN A   9      23.574  21.190  -2.498  0.00  0.00    -0.298 N 
ATOM     18  H   ASN A   9      22.764  20.762  -2.005  0.00  0.00    +0.150 HD
ATOM     19  O   ARG A   8      24.838  23.004  -2.860  0.00  0.00    -0.273 OA
BRANCH  17  20
ATOM     20  CA  ASN A   9      24.371  20.404  -3.432  0.00  0.00    +0.146 C 
BRANCH  20  21
ATOM     21  C   ASN A   9      24.363  21.052  -4.815  0.00  0.00    +0.227 C 
ATOM     22  O   ASN A   9      25.359  20.998  -5.539  0.00  0.00    -0.286 OA
ENDBRANCH  20  21
BRANCH  20  23
ATOM     23  CB  ASN A   9      23.873  18.950  -3.496  0.00  0.00    +0.112 C 
BRANCH  23  24
ATOM     24  CG  ASN A   9      22.547  18.810  -4.208  0.00  0.00    +0.222 C 
ATOM     25  OD1 ASN A   9      21.560  19.433  -3.833  0.00  0.00    -0.275 OA
ATOM     26  ND2 ASN A   9      22.519  17.978  -5.243  0.00  0.00    -0.329 N 
ATOM     27 HD21 ASN A   9      23.382  17.470  -5.526  0.00  0.00    +0.145 HD
ATOM     28 HD22 ASN A   9      21.635  17.834  -5.771  0.00  0.00    +0.145 HD
ENDBRANCH  23  24
ENDBRANCH  20  23
ENDBRANCH  17  20
ENDBRANCH  15  16
BRANCH  15  29
ATOM     29  CB  ARG A   8      23.754  23.267   0.076  0.00  0.00    +0.033 C 
BRANCH  29  30
ATOM     30  CG  ARG A   8      23.197  24.303   1.044  0.00  0.00    +0.045 C 
BRANCH  30  31
ATOM     31  CD  ARG A   8      24.023  24.432   2.326  0.00  0.00    +0.174 C 
BRANCH  31  32
ATOM     32  NE  ARG A   8      24.054  23.186   3.086  0.00  0.00    -0.265 N 
ATOM     33  HE  ARG A   8      23.246  22.979   3.707  0.00  0.00    +0.259 HD
ATOM     34  CZ  ARG A   8      25.042  22.296   3.041  0.00  0.00    +0.342 C 
ATOM     35  NH2 ARG A   8      24.943  21.173   3.738  0.00  0.00    -0.292 N 
ATOM     36 HH21 ARG A   8      24.097  20.992   4.315  0.00  0.00    +0.255 HD
ATOM     37 HH22 ARG A   8      25.711  20.473   3.708  0.00  0.00    +0.255 HD
ATOM     38  NH1 ARG A   8      26.109  22.508   2.280  0.00  0.00    -0.292 N 
ATOM     39 HH11 ARG A   8      26.876  21.806   2.252  0.00  0.00    +0.255 HD
ATOM     40 HH12 ARG A   8      26.178  23.376   1.712  0.00  0.00    +0.255 HD
ENDBRANCH  31  32
ENDBRANCH  30  31
ENDBRANCH  29  30
ENDBRANCH  15  29
ENDBRANCH  12  15
ENDBRANCH  10  11
ENDBRANCH   8  10
ENDBRANCH   5   6
BRANCH   5  41
ATOM     41  CB  ILE A   6      17.113  24.280  -5.634  0.00  0.00    +0.027 C 
ATOM     42  CG2 ILE A   6      18.529  24.180  -6.206  0.00  0.00    +0.002 C 
BRANCH  41  43
ATOM     43  CG1 ILE A   6      16.083  24.212  -6.767  0.00  0.00    +0.002 C 
ATOM     44  CD1 ILE A   6      16.056  22.893  -7.517  0.00  0.00    +0.000 C 
ENDBRANCH  41  43
ENDBRANCH   5  41
ENDBRANCH   2   5
BRANCH   1  45
ATOM     45  CA  ILE A   5      13.468  22.191  -3.239  0.00  0.00    +0.149 C 
BRANCH  45  47
ATOM     46  C   ASN A   4      11.372  22.142  -4.468  0.00  0.00    +0.241 C 
ATOM     47  N   ILE A   5      12.432  21.499  -3.987  0.00  0.00    -0.297 N 
ATOM     48  H   ILE A   5      12.522  20.476  -4.150  0.00  0.00    +0.150 HD
ATOM     49  O   ASN A   4      11.215  23.356  -4.353  0.00  0.00    -0.273 OA
BRANCH  46  50
ATOM     50  CA  ASN A   4      10.334  21.293  -5.185  0.00  0.00    +0.158 C 
BRANCH  50  53
ATOM     51  C   VAL A   3       8.765  21.229  -3.331  0.00  0.00    +0.241 C 
ATOM     52  O   VAL A   3       9.541  20.562  -2.649  0.00  0.00    -0.273 OA
ATOM     53  N   ASN A   4       9.042  21.611  -4.577  0.00  0.00    -0.297 N 
ATOM     54  H   ASN A   4       8.333  22.141  -5.123  0.00  0.00    +0.150 HD
BRANCH  51  55
ATOM     55  CA  VAL A   3       7.412  21.645  -2.767  0.00  0.00    +0.149 C 
BRANCH  55  57
ATOM     56  C   PRO A   2       5.817  20.539  -1.266  0.00  0.00    +0.241 C 
ATOM     57  N   VAL A   3       7.073  20.778  -1.637  0.00  0.00    -0.297 N 
ATOM     58  H   VAL A   3       7.845  20.331  -1.102  0.00  0.00    +0.150 HD
ATOM     59  O   PRO A   2       4.838  21.039  -1.830  0.00  0.00    -0.273 OA
BRANCH  56  65
ATOM     60  C   THR A   1       6.884  17.672  -0.927  0.00  0.00    +0.244 C 
ATOM     61  N   PRO A   2       6.686  18.590   0.031  0.00  0.00    -0.272 N 
ATOM     62  CD  PRO A   2       7.301  18.612   1.368  0.00  0.00    +0.094 C 
ATOM     63  CG  PRO A   2       6.241  19.311   2.187  0.00  0.00    +0.024 C 
ATOM     64  CB  PRO A   2       5.755  20.354   1.253  0.00  0.00    +0.031 C 
ATOM     65  CA  PRO A   2       5.637  19.609  -0.070  0.00  0.00    +0.152 C 
ATOM     66  O   THR A   1       6.190  17.633  -1.944  0.00  0.00    -0.273 OA
BRANCH  60  67
ATOM     67  CA  THR A   1       8.006  16.665  -0.709  0.00  0.00    +0.172 C 
BRANCH  67  68
ATOM     68  CB  THR A   1       9.303  17.234  -1.324  0.00  0.00    +0.135 C 
ATOM     69  CG2 THR A   1       9.173  17.367  -2.836  0.00  0.00    +0.034 C 
BRANCH  68  70
ATOM     70  OG1 THR A   1       9.572  18.520  -0.751  0.00  0.00    -0.383 OA
ATOM     71  HG1 THR A   1       8.817  19.130  -0.944  0.00  0.00    +0.210 HD
ENDBRANCH  68  70
ENDBRANCH  67  68
BRANCH  67  72
ATOM     72  N   THR A   1       7.640  15.392  -1.314  0.00  0.00    -0.236 NA
ATOM     73  H   THR A   1       7.919  15.190  -2.295  0.00  0.00    +0.142 HD
ENDBRANCH  67  72
ENDBRANCH  60  67
ENDBRANCH  56  65
ENDBRANCH  55  57
BRANCH  55  74
ATOM     74  CB  VAL A   3       7.528  23.131  -2.342  0.00  0.00    +0.027 C 
ATOM     75  CG2 VAL A   3       8.599  23.280  -1.270  0.00  0.00    +0.002 C 
ATOM     76  CG1 VAL A   3       6.187  23.648  -1.839  0.00  0.00    +0.002 C 
ENDBRANCH  55  74
ENDBRANCH  51  55
ENDBRANCH  50  53
BRANCH  50  77
ATOM     77  CB  ASN A   4      10.335  21.620  -6.681  0.00  0.00    +0.114 C 
BRANCH  77  78
ATOM     78  CG  ASN A   4       9.432  20.704  -7.472  0.00  0.00    +0.222 C 
ATOM     79  OD1 ASN A   4       9.345  19.511  -7.188  0.00  0.00    -0.275 OA
ATOM     80  ND2 ASN A   4       8.760  21.252  -8.482  0.00  0.00    -0.329 N 
ATOM     81 HD21 ASN A   4       8.864  22.266  -8.686  0.00  0.00    +0.145 HD
ATOM     82 HD22 ASN A   4       8.131  20.666  -9.067  0.00  0.00    +0.145 HD
ENDBRANCH  77  78
ENDBRANCH  50  77
ENDBRANCH  46  50
ENDBRANCH  45  47
BRANCH  45  83
ATOM     83  CB  ILE A   5      13.529  21.648  -1.793  0.00  0.00    +0.027 C 
ATOM     84  CG2 ILE A   5      14.732  22.243  -1.052  0.00  0.00    +0.002 C 
BRANCH  83  85
ATOM     85  CG1 ILE A   5      12.220  21.957  -1.069  0.00  0.00    +0.002 C 
ATOM     86  CD1 ILE A   5      12.063  21.209   0.251  0.00  0.00    +0.000 C 
ENDBRANCH  83  85
ENDBRANCH  45  83
ENDBRANCH   1  45
TORSDOF 32
REMARK  Name = ../refined-set-2016/2cen/2cen_pocket.pdb
REMARK  236 active torsions:
REMARK  status: ('A' for Active; 'I' for Inactive)
REMARK    1  A    between atoms: _1  and  _3
REMARK    2  A    between atoms: _3  and  _4
REMARK    3  A    between atoms: _3  and  _6
REMARK    4  A    between atoms: _6  and  _7
REMARK    5  A    between atoms: _7  and  _8
REMARK    6  A    between atoms: _8  and  _9
REMARK    7  A    between atoms: _18  and  _20
REMARK    8  A    between atoms: _20  and  _21
REMARK    9  A    between atoms: _20  and  _23
REMARK   10  A    between atoms: _23  and  _24
REMARK   11  A    between atoms: _27  and  _29
REMARK   12  A    between atoms: _29  and  _30
REMARK   13  A    between atoms: _29  and  _32
REMARK   14  A    between atoms: _32  and  _33
REMARK   15  A    between atoms: _36  and  _38
REMARK   16  A    between atoms: _38  and  _39
REMARK   17  A    between atoms: _38  and  _41
REMARK   18  A    between atoms: _41  and  _42
REMARK   19  A    between atoms: _45  and  _47
REMARK   20  A    between atoms: _47  and  _48
REMARK   21  A    between atoms: _47  and  _50
REMARK   22  A    between atoms: _50  and  _51
REMARK   23  A    between atoms: _54  and  _56
REMARK   24  A    between atoms: _56  and  _57
REMARK   25  A    between atoms: _56  and  _59
REMARK   26  A    between atoms: _59  and  _60
REMARK   27  A    between atoms: _63  and  _65
REMARK   28  A    between atoms: _65  and  _66
REMARK   29  A    between atoms: _68  and  _70
REMARK   30  A    between atoms: _70  and  _71
REMARK   31  A    between atoms: _74  and  _76
REMARK   32  A    between atoms: _76  and  _77
REMARK   33  A    between atoms: _76  and  _79
REMARK   34  A    between atoms: _79  and  _80
REMARK   35  A    between atoms: _83  and  _85
REMARK   36  A    between atoms: _85  and  _86
REMARK   37  A    between atoms: _85  and  _88
REMARK   38  A    between atoms: _88  and  _89
REMARK   39  A    between atoms: _92  and  _94
REMARK   40  A    between atoms: _94  and  _95
REMARK   41  A    between atoms: _94  and  _97
REMARK   42  A    between atoms: _97  and  _98
REMARK   43  A    between atoms: _101  and  _103
REMARK   44  A    between atoms: _103  and  _104
REMARK   45  A    between atoms: _103  and  _106
REMARK   46  A    between atoms: _109  and  _111
REMARK   47  A    between atoms: _111  and  _112
REMARK   48  A    between atoms: _111  and  _114
REMARK   49  A    between atoms: _114  and  _115
REMARK   50  A    between atoms: _115  and  _116
REMARK   51  A    between atoms: _116  and  _117
REMARK   52  A    between atoms: _117  and  _118
REMARK   53  A    between atoms: _122  and  _124
REMARK   54  A    between atoms: _124  and  _125
REMARK   55  A    between atoms: _124  and  _127
REMARK   56  A    between atoms: _127  and  _128
REMARK   57  A    between atoms: _128  and  _129
REMARK   58  A    between atoms: _131  and  _133
REMARK   59  A    between atoms: _133  and  _134
REMARK   60  A    between atoms: _133  and  _136
REMARK   61  A    between atoms: _136  and  _137
REMARK   62  A    between atoms: _140  and  _142
REMARK   63  A    between atoms: _142  and  _143
REMARK   64  A    between atoms: _145  and  _147
REMARK   65  A    between atoms: _147  and  _148
REMARK   66  A    between atoms: _150  and  _152
REMARK   67  A    between atoms: _152  and  _153
REMARK   68  A    between atoms: _152  and  _155
REMARK   69  A    between atoms: _155  and  _156
REMARK   70  A    between atoms: _159  and  _161
REMARK   71  A    between atoms: _161  and  _162
REMARK   72  A    between atoms: _164  and  _166
REMARK   73  A    between atoms: _166  and  _167
REMARK   74  A    between atoms: _169  and  _171
REMARK   75  A    between atoms: _171  and  _172
REMARK   76  A    between atoms: _171  and  _174
REMARK   77  A    between atoms: _174  and  _175
REMARK   78  A    between atoms: _181  and  _183
REMARK   79  A    between atoms: _183  and  _184
REMARK   80  A    between atoms: _183  and  _186
REMARK   81  A    between atoms: _186  and  _187
REMARK   82  A    between atoms: _190  and  _192
REMARK   83  A    between atoms: _192  and  _193
REMARK   84  A    between atoms: _192  and  _195
REMARK   85  A    between atoms: _198  and  _200
REMARK   86  A    between atoms: _200  and  _201
REMARK   87  A    between atoms: _200  and  _203
REMARK   88  A    between atoms: _203  and  _204
REMARK   89  A    between atoms: _207  and  _209
REMARK   90  A    between atoms: _209  and  _210
REMARK   91  A    between atoms: _209  and  _212
REMARK   92  A    between atoms: _212  and  _213
REMARK   93  A    between atoms: _217  and  _218
REMARK   94  A    between atoms: _223  and  _225
REMARK   95  A    between atoms: _225  and  _226
REMARK   96  A    between atoms: _225  and  _228
REMARK   97  A    between atoms: _231  and  _233
REMARK   98  A    between atoms: _233  and  _234
REMARK   99  A    between atoms: _233  and  _236
REMARK  100  A    between atoms: _236  and  _237
REMARK  101  A    between atoms: _242  and  _244
REMARK  102  A    between atoms: _244  and  _245
REMARK  103  A    between atoms: _244  and  _247
REMARK  104  A    between atoms: _247  and  _248
REMARK  105  A    between atoms: _251  and  _253
REMARK  106  A    between atoms: _253  and  _254
REMARK  107  A    between atoms: _253  and  _256
REMARK  108  A    between atoms: _256  and  _257
REMARK  109  A    between atoms: _260  and  _262
REMARK  110  A    between atoms: _262  and  _263
REMARK  111  A    between atoms: _265  and  _267
REMARK  112  A    between atoms: _267  and  _268
REMARK  113  A    between atoms: _267  and  _270
REMARK  114  A    between atoms: _270  and  _271
REMARK  115  A    between atoms: _271  and  _272
REMARK  116  A    between atoms: _272  and  _273
REMARK  117  A    between atoms: _282  and  _284
REMARK  118  A    between atoms: _284  and  _285
REMARK  119  A    between atoms: _284  and  _287
REMARK  120  A    between atoms: _287  and  _288
REMARK  121  A    between atoms: _288  and  _289
REMARK  122  A    between atoms: _289  and  _290
REMARK  123  A    between atoms: _299  and  _301
REMARK  124  A    between atoms: _301  and  _302
REMARK  125  A    between atoms: _301  and  _304
REMARK  126  A    between atoms: _304  and  _305
REMARK  127  A    between atoms: _308  and  _310
REMARK  128  A    between atoms: _310  and  _311
REMARK  129  A    between atoms: _310  and  _313
REMARK  130  A    between atoms: _313  and  _314
REMARK  131  A    between atoms: _317  and  _319
REMARK  132  A    between atoms: _319  and  _320
REMARK  133  A    between atoms: _319  and  _322
REMARK  134  A    between atoms: _322  and  _323
REMARK  135  A    between atoms: _326  and  _328
REMARK  136  A    between atoms: _328  and  _329
REMARK  137  A    between atoms: _328  and  _331
REMARK  138  A    between atoms: _331  and  _332
REMARK  139  A    between atoms: _335  and  _337
REMARK  140  A    between atoms: _337  and  _338
REMARK  141  A    between atoms: _340  and  _342
REMARK  142  A    between atoms: _342  and  _343
REMARK  143  A    between atoms: _346  and  _348
REMARK  144  A    between atoms: _348  and  _349
REMARK  145  A    between atoms: _348  and  _351
REMARK  146  A    between atoms: _351  and  _352
REMARK  147  A    between atoms: _355  and  _357
REMARK  148  A    between atoms: _357  and  _358
REMARK  149  A    between atoms: _357  and  _360
REMARK  150  A    between atoms: _360  and  _361
REMARK  151  A    between atoms: _364  and  _366
REMARK  152  A    between atoms: _366  and  _367
REMARK  153  A    between atoms: _366  and  _369
REMARK  154  A    between atoms: _369  and  _370
REMARK  155  A    between atoms: _373  and  _375
REMARK  156  A    between atoms: _375  and  _376
REMARK  157  A    between atoms: _375  and  _378
REMARK  158  A    between atoms: _381  and  _383
REMARK  159  A    between atoms: _383  and  _384
REMARK  160  A    between atoms: _383  and  _386
REMARK  161  A    between atoms: _386  and  _387
REMARK  162  A    between atoms: _390  and  _392
REMARK  163  A    between atoms: _392  and  _393
REMARK  164  A    between atoms: _392  and  _395
REMARK  165  A    between atoms: _395  and  _396
REMARK  166  A    between atoms: _396  and  _397
REMARK  167  A    between atoms: _397  and  _398
REMARK  168  A    between atoms: _398  and  _399
REMARK  169  A    between atoms: _403  and  _405
REMARK  170  A    between atoms: _405  and  _406
REMARK  171  A    between atoms: _405  and  _408
REMARK  172  A    between atoms: _408  and  _409
REMARK  173  A    between atoms: _409  and  _410
REMARK  174  A    between atoms: _412  and  _414
REMARK  175  A    between atoms: _414  and  _415
REMARK  176  A    between atoms: _414  and  _417
REMARK  177  A    between atoms: _417  and  _418
REMARK  178  A    between atoms: _421  and  _423
REMARK  179  A    between atoms: _423  and  _424
REMARK  180  A    between atoms: _426  and  _428
REMARK  181  A    between atoms: _428  and  _429
REMARK  182  A    between atoms: _431  and  _433
REMARK  183  A    between atoms: _433  and  _434
REMARK  184  A    between atoms: _433  and  _436
REMARK  185  A    between atoms: _436  and  _437
REMARK  186  A    between atoms: _440  and  _442
REMARK  187  A    between atoms: _442  and  _443
REMARK  188  A    between atoms: _445  and  _447
REMARK  189  A    between atoms: _447  and  _448
REMARK  190  A    between atoms: _450  and  _452
REMARK  191  A    between atoms: _452  and  _453
REMARK  192  A    between atoms: _452  and  _455
REMARK  193  A    between atoms: _455  and  _456
REMARK  194  A    between atoms: _462  and  _464
REMARK  195  A    between atoms: _464  and  _465
REMARK  196  A    between atoms: _464  and  _467
REMARK  197  A    between atoms: _467  and  _468
REMARK  198  A    between atoms: _471  and  _473
REMARK  199  A    between atoms: _473  and  _474
REMARK  200  A    between atoms: _473  and  _476
REMARK  201  A    between atoms: _479  and  _481
REMARK  202  A    between atoms: _481  and  _482
REMARK  203  A    between atoms: _481  and  _484
REMARK  204  A    between atoms: _484  and  _485
REMARK  205  A    between atoms: _488  and  _490
REMARK  206  A    between atoms: _490  and  _491
REMARK  207  A    between atoms: _490  and  _493
REMARK  208  A    between atoms: _493  and  _494
REMARK  209  A    between atoms: _498  and  _499
REMARK  210  A    between atoms: _504  and  _506
REMARK  211  A    between atoms: _506  and  _507
REMARK  212  A    between atoms: _506  and  _509
REMARK  213  A    between atoms: _512  and  _514
REMARK  214  A    between atoms: _514  and  _515
REMARK  215  A    between atoms: _514  and  _517
REMARK  216  A    between atoms: _517  and  _518
REMARK  217  A    between atoms: _523  and  _525
REMARK  218  A    between atoms: _525  and  _526
REMARK  219  A    between atoms: _525  and  _528
REMARK  220  A    between atoms: _528  and  _529
REMARK  221  A    between atoms: _532  and  _534
REMARK  222  A    between atoms: _534  and  _535
REMARK  223  A    between atoms: _534  and  _537
REMARK  224  A    between atoms: _537  and  _538
REMARK  225  A    between atoms: _541  and  _543
REMARK  226  A    between atoms: _543  and  _544
REMARK  227  A    between atoms: _546  and  _548
REMARK  228  A    between atoms: _548  and  _549
REMARK  229  A    between atoms: _548  and  _551
REMARK  230  A    between atoms: _551  and  _552
REMARK  231  A    between atoms: _552  and  _553
REMARK  232  A    between atoms: _553  and  _554
REMARK  233  A    between atoms: _563  and  _565
REMARK  234  A    between atoms: _565  and  _566
REMARK  235  A    between atoms: _565  and  _568
REMARK  236  A    between atoms: _568  and  _569
REMARK                            x       y       z     vdW  Elec       q    Type
REMARK                         _______ _______ _______ _____ _____    ______ ____
ROOT
ATOM      1  O   HOH     1      20.948  20.524   8.632  0.00  0.00    +0.000 OA
ENDROOT
TORSDOF 0
REMARK  Name = ../refined-set-2016/2cen/2cen_pocket.pdb
REMARK  236 active torsions:
REMARK  status: ('A' for Active; 'I' for Inactive)
REMARK    1  A    between atoms: _1  and  _3
REMARK    2  A    between atoms: _3  and  _4
REMARK    3  A    between atoms: _3  and  _6
REMARK    4  A    between atoms: _6  and  _7
REMARK    5  A    between atoms: _7  and  _8
REMARK    6  A    between atoms: _8  and  _9
REMARK    7  A    between atoms: _18  and  _20
REMARK    8  A    between atoms: _20  and  _21
REMARK    9  A    between atoms: _20  and  _23
REMARK   10  A    between atoms: _23  and  _24
REMARK   11  A    between atoms: _27  and  _29
REMARK   12  A    between atoms: _29  and  _30
REMARK   13  A    between atoms: _29  and  _32
REMARK   14  A    between atoms: _32  and  _33
REMARK   15  A    between atoms: _36  and  _38
REMARK   16  A    between atoms: _38  and  _39
REMARK   17  A    between atoms: _38  and  _41
REMARK   18  A    between atoms: _41  and  _42
REMARK   19  A    between atoms: _45  and  _47
REMARK   20  A    between atoms: _47  and  _48
REMARK   21  A    between atoms: _47  and  _50
REMARK   22  A    between atoms: _50  and  _51
REMARK   23  A    between atoms: _54  and  _56
REMARK   24  A    between atoms: _56  and  _57
REMARK   25  A    between atoms: _56  and  _59
REMARK   26  A    between atoms: _59  and  _60
REMARK   27  A    between atoms: _63  and  _65
REMARK   28  A    between atoms: _65  and  _66
REMARK   29  A    between atoms: _68  and  _70
REMARK   30  A    between atoms: _70  and  _71
REMARK   31  A    between atoms: _74  and  _76
REMARK   32  A    between atoms: _76  and  _77
REMARK   33  A    between atoms: _76  and  _79
REMARK   34  A    between atoms: _79  and  _80
REMARK   35  A    between atoms: _83  and  _85
REMARK   36  A    between atoms: _85  and  _86
REMARK   37  A    between atoms: _85  and  _88
REMARK   38  A    between atoms: _88  and  _89
REMARK   39  A    between atoms: _92  and  _94
REMARK   40  A    between atoms: _94  and  _95
REMARK   41  A    between atoms: _94  and  _97
REMARK   42  A    between atoms: _97  and  _98
REMARK   43  A    between atoms: _101  and  _103
REMARK   44  A    between atoms: _103  and  _104
REMARK   45  A    between atoms: _103  and  _106
REMARK   46  A    between atoms: _109  and  _111
REMARK   47  A    between atoms: _111  and  _112
REMARK   48  A    between atoms: _111  and  _114
REMARK   49  A    between atoms: _114  and  _115
REMARK   50  A    between atoms: _115  and  _116
REMARK   51  A    between atoms: _116  and  _117
REMARK   52  A    between atoms: _117  and  _118
REMARK   53  A    between atoms: _122  and  _124
REMARK   54  A    between atoms: _124  and  _125
REMARK   55  A    between atoms: _124  and  _127
REMARK   56  A    between atoms: _127  and  _128
REMARK   57  A    between atoms: _128  and  _129
REMARK   58  A    between atoms: _131  and  _133
REMARK   59  A    between atoms: _133  and  _134
REMARK   60  A    between atoms: _133  and  _136
REMARK   61  A    between atoms: _136  and  _137
REMARK   62  A    between atoms: _140  and  _142
REMARK   63  A    between atoms: _142  and  _143
REMARK   64  A    between atoms: _145  and  _147
REMARK   65  A    between atoms: _147  and  _148
REMARK   66  A    between atoms: _150  and  _152
REMARK   67  A    between atoms: _152  and  _153
REMARK   68  A    between atoms: _152  and  _155
REMARK   69  A    between atoms: _155  and  _156
REMARK   70  A    between atoms: _159  and  _161
REMARK   71  A    between atoms: _161  and  _162
REMARK   72  A    between atoms: _164  and  _166
REMARK   73  A    between atoms: _166  and  _167
REMARK   74  A    between atoms: _169  and  _171
REMARK   75  A    between atoms: _171  and  _172
REMARK   76  A    between atoms: _171  and  _174
REMARK   77  A    between atoms: _174  and  _175
REMARK   78  A    between atoms: _181  and  _183
REMARK   79  A    between atoms: _183  and  _184
REMARK   80  A    between atoms: _183  and  _186
REMARK   81  A    between atoms: _186  and  _187
REMARK   82  A    between atoms: _190  and  _192
REMARK   83  A    between atoms: _192  and  _193
REMARK   84  A    between atoms: _192  and  _195
REMARK   85  A    between atoms: _198  and  _200
REMARK   86  A    between atoms: _200  and  _201
REMARK   87  A    between atoms: _200  and  _203
REMARK   88  A    between atoms: _203  and  _204
REMARK   89  A    between atoms: _207  and  _209
REMARK   90  A    between atoms: _209  and  _210
REMARK   91  A    between atoms: _209  and  _212
REMARK   92  A    between atoms: _212  and  _213
REMARK   93  A    between atoms: _217  and  _218
REMARK   94  A    between atoms: _223  and  _225
REMARK   95  A    between atoms: _225  and  _226
REMARK   96  A    between atoms: _225  and  _228
REMARK   97  A    between atoms: _231  and  _233
REMARK   98  A    between atoms: _233  and  _234
REMARK   99  A    between atoms: _233  and  _236
REMARK  100  A    between atoms: _236  and  _237
REMARK  101  A    between atoms: _242  and  _244
REMARK  102  A    between atoms: _244  and  _245
REMARK  103  A    between atoms: _244  and  _247
REMARK  104  A    between atoms: _247  and  _248
REMARK  105  A    between atoms: _251  and  _253
REMARK  106  A    between atoms: _253  and  _254
REMARK  107  A    between atoms: _253  and  _256
REMARK  108  A    between atoms: _256  and  _257
REMARK  109  A    between atoms: _260  and  _262
REMARK  110  A    between atoms: _262  and  _263
REMARK  111  A    between atoms: _265  and  _267
REMARK  112  A    between atoms: _267  and  _268
REMARK  113  A    between atoms: _267  and  _270
REMARK  114  A    between atoms: _270  and  _271
REMARK  115  A    between atoms: _271  and  _272
REMARK  116  A    between atoms: _272  and  _273
REMARK  117  A    between atoms: _282  and  _284
REMARK  118  A    between atoms: _284  and  _285
REMARK  119  A    between atoms: _284  and  _287
REMARK  120  A    between atoms: _287  and  _288
REMARK  121  A    between atoms: _288  and  _289
REMARK  122  A    between atoms: _289  and  _290
REMARK  123  A    between atoms: _299  and  _301
REMARK  124  A    between atoms: _301  and  _302
REMARK  125  A    between atoms: _301  and  _304
REMARK  126  A    between atoms: _304  and  _305
REMARK  127  A    between atoms: _308  and  _310
REMARK  128  A    between atoms: _310  and  _311
REMARK  129  A    between atoms: _310  and  _313
REMARK  130  A    between atoms: _313  and  _314
REMARK  131  A    between atoms: _317  and  _319
REMARK  132  A    between atoms: _319  and  _320
REMARK  133  A    between atoms: _319  and  _322
REMARK  134  A    between atoms: _322  and  _323
REMARK  135  A    between atoms: _326  and  _328
REMARK  136  A    between atoms: _328  and  _329
REMARK  137  A    between atoms: _328  and  _331
REMARK  138  A    between atoms: _331  and  _332
REMARK  139  A    between atoms: _335  and  _337
REMARK  140  A    between atoms: _337  and  _338
REMARK  141  A    between atoms: _340  and  _342
REMARK  142  A    between atoms: _342  and  _343
REMARK  143  A    between atoms: _346  and  _348
REMARK  144  A    between atoms: _348  and  _349
REMARK  145  A    between atoms: _348  and  _351
REMARK  146  A    between atoms: _351  and  _352
REMARK  147  A    between atoms: _355  and  _357
REMARK  148  A    between atoms: _357  and  _358
REMARK  149  A    between atoms: _357  and  _360
REMARK  150  A    between atoms: _360  and  _361
REMARK  151  A    between atoms: _364  and  _366
REMARK  152  A    between atoms: _366  and  _367
REMARK  153  A    between atoms: _366  and  _369
REMARK  154  A    between atoms: _369  and  _370
REMARK  155  A    between atoms: _373  and  _375
REMARK  156  A    between atoms: _375  and  _376
REMARK  157  A    between atoms: _375  and  _378
REMARK  158  A    between atoms: _381  and  _383
REMARK  159  A    between atoms: _383  and  _384
REMARK  160  A    between atoms: _383  and  _386
REMARK  161  A    between atoms: _386  and  _387
REMARK  162  A    between atoms: _390  and  _392
REMARK  163  A    between atoms: _392  and  _393
REMARK  164  A    between atoms: _392  and  _395
REMARK  165  A    between atoms: _395  and  _396
REMARK  166  A    between atoms: _396  and  _397
REMARK  167  A    between atoms: _397  and  _398
REMARK  168  A    between atoms: _398  and  _399
REMARK  169  A    between atoms: _403  and  _405
REMARK  170  A    between atoms: _405  and  _406
REMARK  171  A    between atoms: _405  and  _408
REMARK  172  A    between atoms: _408  and  _409
REMARK  173  A    between atoms: _409  and  _410
REMARK  174  A    between atoms: _412  and  _414
REMARK  175  A    between atoms: _414  and  _415
REMARK  176  A    between atoms: _414  and  _417
REMARK  177  A    between atoms: _417  and  _418
REMARK  178  A    between atoms: _421  and  _423
REMARK  179  A    between atoms: _423  and  _424
REMARK  180  A    between atoms: _426  and  _428
REMARK  181  A    between atoms: _428  and  _429
REMARK  182  A    between atoms: _431  and  _433
REMARK  183  A    between atoms: _433  and  _434
REMARK  184  A    between atoms: _433  and  _436
REMARK  185  A    between atoms: _436  and  _437
REMARK  186  A    between atoms: _440  and  _442
REMARK  187  A    between atoms: _442  and  _443
REMARK  188  A    between atoms: _445  and  _447
REMARK  189  A    between atoms: _447  and  _448
REMARK  190  A    between atoms: _450  and  _452
REMARK  191  A    between atoms: _452  and  _453
REMARK  192  A    between atoms: _452  and  _455
REMARK  193  A    between atoms: _455  and  _456
REMARK  194  A    between atoms: _462  and  _464
REMARK  195  A    between atoms: _464  and  _465
REMARK  196  A    between atoms: _464  and  _467
REMARK  197  A    between atoms: _467  and  _468
REMARK  198  A    between atoms: _471  and  _473
REMARK  199  A    between atoms: _473  and  _474
REMARK  200  A    between atoms: _473  and  _476
REMARK  201  A    between atoms: _479  and  _481
REMARK  202  A    between atoms: _481  and  _482
REMARK  203  A    between atoms: _481  and  _484
REMARK  204  A    between atoms: _484  and  _485
REMARK  205  A    between atoms: _488  and  _490
REMARK  206  A    between atoms: _490  and  _491
REMARK  207  A    between atoms: _490  and  _493
REMARK  208  A    between atoms: _493  and  _494
REMARK  209  A    between atoms: _498  and  _499
REMARK  210  A    between atoms: _504  and  _506
REMARK  211  A    between atoms: _506  and  _507
REMARK  212  A    between atoms: _506  and  _509
REMARK  213  A    between atoms: _512  and  _514
REMARK  214  A    between atoms: _514  and  _515
REMARK  215  A    between atoms: _514  and  _517
REMARK  216  A    between atoms: _517  and  _518
REMARK  217  A    between atoms: _523  and  _525
REMARK  218  A    between atoms: _525  and  _526
REMARK  219  A    between atoms: _525  and  _528
REMARK  220  A    between atoms: _528  and  _529
REMARK  221  A    between atoms: _532  and  _534
REMARK  222  A    between atoms: _534  and  _535
REMARK  223  A    between atoms: _534  and  _537
REMARK  224  A    between atoms: _537  and  _538
REMARK  225  A    between atoms: _541  and  _543
REMARK  226  A    between atoms: _543  and  _544
REMARK  227  A    between atoms: _546  and  _548
REMARK  228  A    between atoms: _548  and  _549
REMARK  229  A    between atoms: _548  and  _551
REMARK  230  A    between atoms: _551  and  _552
REMARK  231  A    between atoms: _552  and  _553
REMARK  232  A    between atoms: _553  and  _554
REMARK  233  A    between atoms: _563  and  _565
REMARK  234  A    between atoms: _565  and  _566
REMARK  235  A    between atoms: _565  and  _568
REMARK  236  A    between atoms: _568  and  _569
REMARK                            x       y       z     vdW  Elec       q    Type
REMARK                         _______ _______ _______ _____ _____    ______ ____
ROOT
ATOM      1  O   HOH     1      11.001  30.418   1.586  0.00  0.00    +0.000 OA
ENDROOT
TORSDOF 0
REMARK  Name = ../refined-set-2016/2cen/2cen_pocket.pdb
REMARK  236 active torsions:
REMARK  status: ('A' for Active; 'I' for Inactive)
REMARK    1  A    between atoms: _1  and  _3
REMARK    2  A    between atoms: _3  and  _4
REMARK    3  A    between atoms: _3  and  _6
REMARK    4  A    between atoms: _6  and  _7
REMARK    5  A    between atoms: _7  and  _8
REMARK    6  A    between atoms: _8  and  _9
REMARK    7  A    between atoms: _18  and  _20
REMARK    8  A    between atoms: _20  and  _21
REMARK    9  A    between atoms: _20  and  _23
REMARK   10  A    between atoms: _23  and  _24
REMARK   11  A    between atoms: _27  and  _29
REMARK   12  A    between atoms: _29  and  _30
REMARK   13  A    between atoms: _29  and  _32
REMARK   14  A    between atoms: _32  and  _33
REMARK   15  A    between atoms: _36  and  _38
REMARK   16  A    between atoms: _38  and  _39
REMARK   17  A    between atoms: _38  and  _41
REMARK   18  A    between atoms: _41  and  _42
REMARK   19  A    between atoms: _45  and  _47
REMARK   20  A    between atoms: _47  and  _48
REMARK   21  A    between atoms: _47  and  _50
REMARK   22  A    between atoms: _50  and  _51
REMARK   23  A    between atoms: _54  and  _56
REMARK   24  A    between atoms: _56  and  _57
REMARK   25  A    between atoms: _56  and  _59
REMARK   26  A    between atoms: _59  and  _60
REMARK   27  A    between atoms: _63  and  _65
REMARK   28  A    between atoms: _65  and  _66
REMARK   29  A    between atoms: _68  and  _70
REMARK   30  A    between atoms: _70  and  _71
REMARK   31  A    between atoms: _74  and  _76
REMARK   32  A    between atoms: _76  and  _77
REMARK   33  A    between atoms: _76  and  _79
REMARK   34  A    between atoms: _79  and  _80
REMARK   35  A    between atoms: _83  and  _85
REMARK   36  A    between atoms: _85  and  _86
REMARK   37  A    between atoms: _85  and  _88
REMARK   38  A    between atoms: _88  and  _89
REMARK   39  A    between atoms: _92  and  _94
REMARK   40  A    between atoms: _94  and  _95
REMARK   41  A    between atoms: _94  and  _97
REMARK   42  A    between atoms: _97  and  _98
REMARK   43  A    between atoms: _101  and  _103
REMARK   44  A    between atoms: _103  and  _104
REMARK   45  A    between atoms: _103  and  _106
REMARK   46  A    between atoms: _109  and  _111
REMARK   47  A    between atoms: _111  and  _112
REMARK   48  A    between atoms: _111  and  _114
REMARK   49  A    between atoms: _114  and  _115
REMARK   50  A    between atoms: _115  and  _116
REMARK   51  A    between atoms: _116  and  _117
REMARK   52  A    between atoms: _117  and  _118
REMARK   53  A    between atoms: _122  and  _124
REMARK   54  A    between atoms: _124  and  _125
REMARK   55  A    between atoms: _124  and  _127
REMARK   56  A    between atoms: _127  and  _128
REMARK   57  A    between atoms: _128  and  _129
REMARK   58  A    between atoms: _131  and  _133
REMARK   59  A    between atoms: _133  and  _134
REMARK   60  A    between atoms: _133  and  _136
REMARK   61  A    between atoms: _136  and  _137
REMARK   62  A    between atoms: _140  and  _142
REMARK   63  A    between atoms: _142  and  _143
REMARK   64  A    between atoms: _145  and  _147
REMARK   65  A    between atoms: _147  and  _148
REMARK   66  A    between atoms: _150  and  _152
REMARK   67  A    between atoms: _152  and  _153
REMARK   68  A    between atoms: _152  and  _155
REMARK   69  A    between atoms: _155  and  _156
REMARK   70  A    between atoms: _159  and  _161
REMARK   71  A    between atoms: _161  and  _162
REMARK   72  A    between atoms: _164  and  _166
REMARK   73  A    between atoms: _166  and  _167
REMARK   74  A    between atoms: _169  and  _171
REMARK   75  A    between atoms: _171  and  _172
REMARK   76  A    between atoms: _171  and  _174
REMARK   77  A    between atoms: _174  and  _175
REMARK   78  A    between atoms: _181  and  _183
REMARK   79  A    between atoms: _183  and  _184
REMARK   80  A    between atoms: _183  and  _186
REMARK   81  A    between atoms: _186  and  _187
REMARK   82  A    between atoms: _190  and  _192
REMARK   83  A    between atoms: _192  and  _193
REMARK   84  A    between atoms: _192  and  _195
REMARK   85  A    between atoms: _198  and  _200
REMARK   86  A    between atoms: _200  and  _201
REMARK   87  A    between atoms: _200  and  _203
REMARK   88  A    between atoms: _203  and  _204
REMARK   89  A    between atoms: _207  and  _209
REMARK   90  A    between atoms: _209  and  _210
REMARK   91  A    between atoms: _209  and  _212
REMARK   92  A    between atoms: _212  and  _213
REMARK   93  A    between atoms: _217  and  _218
REMARK   94  A    between atoms: _223  and  _225
REMARK   95  A    between atoms: _225  and  _226
REMARK   96  A    between atoms: _225  and  _228
REMARK   97  A    between atoms: _231  and  _233
REMARK   98  A    between atoms: _233  and  _234
REMARK   99  A    between atoms: _233  and  _236
REMARK  100  A    between atoms: _236  and  _237
REMARK  101  A    between atoms: _242  and  _244
REMARK  102  A    between atoms: _244  and  _245
REMARK  103  A    between atoms: _244  and  _247
REMARK  104  A    between atoms: _247  and  _248
REMARK  105  A    between atoms: _251  and  _253
REMARK  106  A    between atoms: _253  and  _254
REMARK  107  A    between atoms: _253  and  _256
REMARK  108  A    between atoms: _256  and  _257
REMARK  109  A    between atoms: _260  and  _262
REMARK  110  A    between atoms: _262  and  _263
REMARK  111  A    between atoms: _265  and  _267
REMARK  112  A    between atoms: _267  and  _268
REMARK  113  A    between atoms: _267  and  _270
REMARK  114  A    between atoms: _270  and  _271
REMARK  115  A    between atoms: _271  and  _272
REMARK  116  A    between atoms: _272  and  _273
REMARK  117  A    between atoms: _282  and  _284
REMARK  118  A    between atoms: _284  and  _285
REMARK  119  A    between atoms: _284  and  _287
REMARK  120  A    between atoms: _287  and  _288
REMARK  121  A    between atoms: _288  and  _289
REMARK  122  A    between atoms: _289  and  _290
REMARK  123  A    between atoms: _299  and  _301
REMARK  124  A    between atoms: _301  and  _302
REMARK  125  A    between atoms: _301  and  _304
REMARK  126  A    between atoms: _304  and  _305
REMARK  127  A    between atoms: _308  and  _310
REMARK  128  A    between atoms: _310  and  _311
REMARK  129  A    between atoms: _310  and  _313
REMARK  130  A    between atoms: _313  and  _314
REMARK  131  A    between atoms: _317  and  _319
REMARK  132  A    between atoms: _319  and  _320
REMARK  133  A    between atoms: _319  and  _322
REMARK  134  A    between atoms: _322  and  _323
REMARK  135  A    between atoms: _326  and  _328
REMARK  136  A    between atoms: _328  and  _329
REMARK  137  A    between atoms: _328  and  _331
REMARK  138  A    between atoms: _331  and  _332
REMARK  139  A    between atoms: _335  and  _337
REMARK  140  A    between atoms: _337  and  _338
REMARK  141  A    between atoms: _340  and  _342
REMARK  142  A    between atoms: _342  and  _343
REMARK  143  A    between atoms: _346  and  _348
REMARK  144  A    between atoms: _348  and  _349
REMARK  145  A    between atoms: _348  and  _351
REMARK  146  A    between atoms: _351  and  _352
REMARK  147  A    between atoms: _355  and  _357
REMARK  148  A    between atoms: _357  and  _358
REMARK  149  A    between atoms: _357  and  _360
REMARK  150  A    between atoms: _360  and  _361
REMARK  151  A    between atoms: _364  and  _366
REMARK  152  A    between atoms: _366  and  _367
REMARK  153  A    between atoms: _366  and  _369
REMARK  154  A    between atoms: _369  and  _370
REMARK  155  A    between atoms: _373  and  _375
REMARK  156  A    between atoms: _375  and  _376
REMARK  157  A    between atoms: _375  and  _378
REMARK  158  A    between atoms: _381  and  _383
REMARK  159  A    between atoms: _383  and  _384
REMARK  160  A    between atoms: _383  and  _386
REMARK  161  A    between atoms: _386  and  _387
REMARK  162  A    between atoms: _390  and  _392
REMARK  163  A    between atoms: _392  and  _393
REMARK  164  A    between atoms: _392  and  _395
REMARK  165  A    between atoms: _395  and  _396
REMARK  166  A    between atoms: _396  and  _397
REMARK  167  A    between atoms: _397  and  _398
REMARK  168  A    between atoms: _398  and  _399
REMARK  169  A    between atoms: _403  and  _405
REMARK  170  A    between atoms: _405  and  _406
REMARK  171  A    between atoms: _405  and  _408
REMARK  172  A    between atoms: _408  and  _409
REMARK  173  A    between atoms: _409  and  _410
REMARK  174  A    between atoms: _412  and  _414
REMARK  175  A    between atoms: _414  and  _415
REMARK  176  A    between atoms: _414  and  _417
REMARK  177  A    between atoms: _417  and  _418
REMARK  178  A    between atoms: _421  and  _423
REMARK  179  A    between atoms: _423  and  _424
REMARK  180  A    between atoms: _426  and  _428
REMARK  181  A    between atoms: _428  and  _429
REMARK  182  A    between atoms: _431  and  _433
REMARK  183  A    between atoms: _433  and  _434
REMARK  184  A    between atoms: _433  and  _436
REMARK  185  A    between atoms: _436  and  _437
REMARK  186  A    between atoms: _440  and  _442
REMARK  187  A    between atoms: _442  and  _443
REMARK  188  A    between atoms: _445  and  _447
REMARK  189  A    between atoms: _447  and  _448
REMARK  190  A    between atoms: _450  and  _452
REMARK  191  A    between atoms: _452  and  _453
REMARK  192  A    between atoms: _452  and  _455
REMARK  193  A    between atoms: _455  and  _456
REMARK  194  A    between atoms: _462  and  _464
REMARK  195  A    between atoms: _464  and  _465
REMARK  196  A    between atoms: _464  and  _467
REMARK  197  A    between atoms: _467  and  _468
REMARK  198  A    between atoms: _471  and  _473
REMARK  199  A    between atoms: _473  and  _474
REMARK  200  A    between atoms: _473  and  _476
REMARK  201  A    between atoms: _479  and  _481
REMARK  202  A    between atoms: _481  and  _482
REMARK  203  A    between atoms: _481  and  _484
REMARK  204  A    between atoms: _484  and  _485
REMARK  205  A    between atoms: _488  and  _490
REMARK  206  A    between atoms: _490  and  _491
REMARK  207  A    between atoms: _490  and  _493
REMARK  208  A    between atoms: _493  and  _494
REMARK  209  A    between atoms: _498  and  _499
REMARK  210  A    between atoms: _504  and  _506
REMARK  211  A    between atoms: _506  and  _507
REMARK  212  A    between atoms: _506  and  _509
REMARK  213  A    between atoms: _512  and  _514
REMARK  214  A    between atoms: _514  and  _515
REMARK  215  A    between atoms: _514  and  _517
REMARK  216  A    between atoms: _517  and  _518
REMARK  217  A    between atoms: _523  and  _525
REMARK  218  A    between atoms: _525  and  _526
REMARK  219  A    between atoms: _525  and  _528
REMARK  220  A    between atoms: _528  and  _529
REMARK  221  A    between atoms: _532  and  _534
REMARK  222  A    between atoms: _534  and  _535
REMARK  223  A    between atoms: _534  and  _537
REMARK  224  A    between atoms: _537  and  _538
REMARK  225  A    between atoms: _541  and  _543
REMARK  226  A    between atoms: _543  and  _544
REMARK  227  A    between atoms: _546  and  _548
REMARK  228  A    between atoms: _548  and  _549
REMARK  229  A    between atoms: _548  and  _551
REMARK  230  A    between atoms: _551  and  _552
REMARK  231  A    between atoms: _552  and  _553
REMARK  232  A    between atoms: _553  and  _554
REMARK  233  A    between atoms: _563  and  _565
REMARK  234  A    between atoms: _565  and  _566
REMARK  235  A    between atoms: _565  and  _568
REMARK  236  A    between atoms: _568  and  _569
REMARK                            x       y       z     vdW  Elec       q    Type
REMARK                         _______ _______ _______ _____ _____    ______ ____
ROOT
ATOM      1  O   HOH     1       9.174  28.441   2.267  0.00  0.00    +0.000 OA
ENDROOT
TORSDOF 0
REMARK  Name = ../refined-set-2016/2cen/2cen_pocket.pdb
REMARK  236 active torsions:
REMARK  status: ('A' for Active; 'I' for Inactive)
REMARK    1  A    between atoms: _1  and  _3
REMARK    2  A    between atoms: _3  and  _4
REMARK    3  A    between atoms: _3  and  _6
REMARK    4  A    between atoms: _6  and  _7
REMARK    5  A    between atoms: _7  and  _8
REMARK    6  A    between atoms: _8  and  _9
REMARK    7  A    between atoms: _18  and  _20
REMARK    8  A    between atoms: _20  and  _21
REMARK    9  A    between atoms: _20  and  _23
REMARK   10  A    between atoms: _23  and  _24
REMARK   11  A    between atoms: _27  and  _29
REMARK   12  A    between atoms: _29  and  _30
REMARK   13  A    between atoms: _29  and  _32
REMARK   14  A    between atoms: _32  and  _33
REMARK   15  A    between atoms: _36  and  _38
REMARK   16  A    between atoms: _38  and  _39
REMARK   17  A    between atoms: _38  and  _41
REMARK   18  A    between atoms: _41  and  _42
REMARK   19  A    between atoms: _45  and  _47
REMARK   20  A    between atoms: _47  and  _48
REMARK   21  A    between atoms: _47  and  _50
REMARK   22  A    between atoms: _50  and  _51
REMARK   23  A    between atoms: _54  and  _56
REMARK   24  A    between atoms: _56  and  _57
REMARK   25  A    between atoms: _56  and  _59
REMARK   26  A    between atoms: _59  and  _60
REMARK   27  A    between atoms: _63  and  _65
REMARK   28  A    between atoms: _65  and  _66
REMARK   29  A    between atoms: _68  and  _70
REMARK   30  A    between atoms: _70  and  _71
REMARK   31  A    between atoms: _74  and  _76
REMARK   32  A    between atoms: _76  and  _77
REMARK   33  A    between atoms: _76  and  _79
REMARK   34  A    between atoms: _79  and  _80
REMARK   35  A    between atoms: _83  and  _85
REMARK   36  A    between atoms: _85  and  _86
REMARK   37  A    between atoms: _85  and  _88
REMARK   38  A    between atoms: _88  and  _89
REMARK   39  A    between atoms: _92  and  _94
REMARK   40  A    between atoms: _94  and  _95
REMARK   41  A    between atoms: _94  and  _97
REMARK   42  A    between atoms: _97  and  _98
REMARK   43  A    between atoms: _101  and  _103
REMARK   44  A    between atoms: _103  and  _104
REMARK   45  A    between atoms: _103  and  _106
REMARK   46  A    between atoms: _109  and  _111
REMARK   47  A    between atoms: _111  and  _112
REMARK   48  A    between atoms: _111  and  _114
REMARK   49  A    between atoms: _114  and  _115
REMARK   50  A    between atoms: _115  and  _116
REMARK   51  A    between atoms: _116  and  _117
REMARK   52  A    between atoms: _117  and  _118
REMARK   53  A    between atoms: _122  and  _124
REMARK   54  A    between atoms: _124  and  _125
REMARK   55  A    between atoms: _124  and  _127
REMARK   56  A    between atoms: _127  and  _128
REMARK   57  A    between atoms: _128  and  _129
REMARK   58  A    between atoms: _131  and  _133
REMARK   59  A    between atoms: _133  and  _134
REMARK   60  A    between atoms: _133  and  _136
REMARK   61  A    between atoms: _136  and  _137
REMARK   62  A    between atoms: _140  and  _142
REMARK   63  A    between atoms: _142  and  _143
REMARK   64  A    between atoms: _145  and  _147
REMARK   65  A    between atoms: _147  and  _148
REMARK   66  A    between atoms: _150  and  _152
REMARK   67  A    between atoms: _152  and  _153
REMARK   68  A    between atoms: _152  and  _155
REMARK   69  A    between atoms: _155  and  _156
REMARK   70  A    between atoms: _159  and  _161
REMARK   71  A    between atoms: _161  and  _162
REMARK   72  A    between atoms: _164  and  _166
REMARK   73  A    between atoms: _166  and  _167
REMARK   74  A    between atoms: _169  and  _171
REMARK   75  A    between atoms: _171  and  _172
REMARK   76  A    between atoms: _171  and  _174
REMARK   77  A    between atoms: _174  and  _175
REMARK   78  A    between atoms: _181  and  _183
REMARK   79  A    between atoms: _183  and  _184
REMARK   80  A    between atoms: _183  and  _186
REMARK   81  A    between atoms: _186  and  _187
REMARK   82  A    between atoms: _190  and  _192
REMARK   83  A    between atoms: _192  and  _193
REMARK   84  A    between atoms: _192  and  _195
REMARK   85  A    between atoms: _198  and  _200
REMARK   86  A    between atoms: _200  and  _201
REMARK   87  A    between atoms: _200  and  _203
REMARK   88  A    between atoms: _203  and  _204
REMARK   89  A    between atoms: _207  and  _209
REMARK   90  A    between atoms: _209  and  _210
REMARK   91  A    between atoms: _209  and  _212
REMARK   92  A    between atoms: _212  and  _213
REMARK   93  A    between atoms: _217  and  _218
REMARK   94  A    between atoms: _223  and  _225
REMARK   95  A    between atoms: _225  and  _226
REMARK   96  A    between atoms: _225  and  _228
REMARK   97  A    between atoms: _231  and  _233
REMARK   98  A    between atoms: _233  and  _234
REMARK   99  A    between atoms: _233  and  _236
REMARK  100  A    between atoms: _236  and  _237
REMARK  101  A    between atoms: _242  and  _244
REMARK  102  A    between atoms: _244  and  _245
REMARK  103  A    between atoms: _244  and  _247
REMARK  104  A    between atoms: _247  and  _248
REMARK  105  A    between atoms: _251  and  _253
REMARK  106  A    between atoms: _253  and  _254
REMARK  107  A    between atoms: _253  and  _256
REMARK  108  A    between atoms: _256  and  _257
REMARK  109  A    between atoms: _260  and  _262
REMARK  110  A    between atoms: _262  and  _263
REMARK  111  A    between atoms: _265  and  _267
REMARK  112  A    between atoms: _267  and  _268
REMARK  113  A    between atoms: _267  and  _270
REMARK  114  A    between atoms: _270  and  _271
REMARK  115  A    between atoms: _271  and  _272
REMARK  116  A    between atoms: _272  and  _273
REMARK  117  A    between atoms: _282  and  _284
REMARK  118  A    between atoms: _284  and  _285
REMARK  119  A    between atoms: _284  and  _287
REMARK  120  A    between atoms: _287  and  _288
REMARK  121  A    between atoms: _288  and  _289
REMARK  122  A    between atoms: _289  and  _290
REMARK  123  A    between atoms: _299  and  _301
REMARK  124  A    between atoms: _301  and  _302
REMARK  125  A    between atoms: _301  and  _304
REMARK  126  A    between atoms: _304  and  _305
REMARK  127  A    between atoms: _308  and  _310
REMARK  128  A    between atoms: _310  and  _311
REMARK  129  A    between atoms: _310  and  _313
REMARK  130  A    between atoms: _313  and  _314
REMARK  131  A    between atoms: _317  and  _319
REMARK  132  A    between atoms: _319  and  _320
REMARK  133  A    between atoms: _319  and  _322
REMARK  134  A    between atoms: _322  and  _323
REMARK  135  A    between atoms: _326  and  _328
REMARK  136  A    between atoms: _328  and  _329
REMARK  137  A    between atoms: _328  and  _331
REMARK  138  A    between atoms: _331  and  _332
REMARK  139  A    between atoms: _335  and  _337
REMARK  140  A    between atoms: _337  and  _338
REMARK  141  A    between atoms: _340  and  _342
REMARK  142  A    between atoms: _342  and  _343
REMARK  143  A    between atoms: _346  and  _348
REMARK  144  A    between atoms: _348  and  _349
REMARK  145  A    between atoms: _348  and  _351
REMARK  146  A    between atoms: _351  and  _352
REMARK  147  A    between atoms: _355  and  _357
REMARK  148  A    between atoms: _357  and  _358
REMARK  149  A    between atoms: _357  and  _360
REMARK  150  A    between atoms: _360  and  _361
REMARK  151  A    between atoms: _364  and  _366
REMARK  152  A    between atoms: _366  and  _367
REMARK  153  A    between atoms: _366  and  _369
REMARK  154  A    between atoms: _369  and  _370
REMARK  155  A    between atoms: _373  and  _375
REMARK  156  A    between atoms: _375  and  _376
REMARK  157  A    between atoms: _375  and  _378
REMARK  158  A    between atoms: _381  and  _383
REMARK  159  A    between atoms: _383  and  _384
REMARK  160  A    between atoms: _383  and  _386
REMARK  161  A    between atoms: _386  and  _387
REMARK  162  A    between atoms: _390  and  _392
REMARK  163  A    between atoms: _392  and  _393
REMARK  164  A    between atoms: _392  and  _395
REMARK  165  A    between atoms: _395  and  _396
REMARK  166  A    between atoms: _396  and  _397
REMARK  167  A    between atoms: _397  and  _398
REMARK  168  A    between atoms: _398  and  _399
REMARK  169  A    between atoms: _403  and  _405
REMARK  170  A    between atoms: _405  and  _406
REMARK  171  A    between atoms: _405  and  _408
REMARK  172  A    between atoms: _408  and  _409
REMARK  173  A    between atoms: _409  and  _410
REMARK  174  A    between atoms: _412  and  _414
REMARK  175  A    between atoms: _414  and  _415
REMARK  176  A    between atoms: _414  and  _417
REMARK  177  A    between atoms: _417  and  _418
REMARK  178  A    between atoms: _421  and  _423
REMARK  179  A    between atoms: _423  and  _424
REMARK  180  A    between atoms: _426  and  _428
REMARK  181  A    between atoms: _428  and  _429
REMARK  182  A    between atoms: _431  and  _433
REMARK  183  A    between atoms: _433  and  _434
REMARK  184  A    between atoms: _433  and  _436
REMARK  185  A    between atoms: _436  and  _437
REMARK  186  A    between atoms: _440  and  _442
REMARK  187  A    between atoms: _442  and  _443
REMARK  188  A    between atoms: _445  and  _447
REMARK  189  A    between atoms: _447  and  _448
REMARK  190  A    between atoms: _450  and  _452
REMARK  191  A    between atoms: _452  and  _453
REMARK  192  A    between atoms: _452  and  _455
REMARK  193  A    between atoms: _455  and  _456
REMARK  194  A    between atoms: _462  and  _464
REMARK  195  A    between atoms: _464  and  _465
REMARK  196  A    between atoms: _464  and  _467
REMARK  197  A    between atoms: _467  and  _468
REMARK  198  A    between atoms: _471  and  _473
REMARK  199  A    between atoms: _473  and  _474
REMARK  200  A    between atoms: _473  and  _476
REMARK  201  A    between atoms: _479  and  _481
REMARK  202  A    between atoms: _481  and  _482
REMARK  203  A    between atoms: _481  and  _484
REMARK  204  A    between atoms: _484  and  _485
REMARK  205  A    between atoms: _488  and  _490
REMARK  206  A    between atoms: _490  and  _491
REMARK  207  A    between atoms: _490  and  _493
REMARK  208  A    between atoms: _493  and  _494
REMARK  209  A    between atoms: _498  and  _499
REMARK  210  A    between atoms: _504  and  _506
REMARK  211  A    between atoms: _506  and  _507
REMARK  212  A    between atoms: _506  and  _509
REMARK  213  A    between atoms: _512  and  _514
REMARK  214  A    between atoms: _514  and  _515
REMARK  215  A    between atoms: _514  and  _517
REMARK  216  A    between atoms: _517  and  _518
REMARK  217  A    between atoms: _523  and  _525
REMARK  218  A    between atoms: _525  and  _526
REMARK  219  A    between atoms: _525  and  _528
REMARK  220  A    between atoms: _528  and  _529
REMARK  221  A    between atoms: _532  and  _534
REMARK  222  A    between atoms: _534  and  _535
REMARK  223  A    between atoms: _534  and  _537
REMARK  224  A    between atoms: _537  and  _538
REMARK  225  A    between atoms: _541  and  _543
REMARK  226  A    between atoms: _543  and  _544
REMARK  227  A    between atoms: _546  and  _548
REMARK  228  A    between atoms: _548  and  _549
REMARK  229  A    between atoms: _548  and  _551
REMARK  230  A    between atoms: _551  and  _552
REMARK  231  A    between atoms: _552  and  _553
REMARK  232  A    between atoms: _553  and  _554
REMARK  233  A    between atoms: _563  and  _565
REMARK  234  A    between atoms: _565  and  _566
REMARK  235  A    between atoms: _565  and  _568
REMARK  236  A    between atoms: _568  and  _569
REMARK                            x       y       z     vdW  Elec       q    Type
REMARK                         _______ _______ _______ _____ _____    ______ ____
ROOT
ATOM      1  O   HOH     1       8.248  35.230   5.695  0.00  0.00    +0.000 OA
ENDROOT
TORSDOF 0
REMARK  Name = ../refined-set-2016/2cen/2cen_pocket.pdb
REMARK  236 active torsions:
REMARK  status: ('A' for Active; 'I' for Inactive)
REMARK    1  A    between atoms: _1  and  _3
REMARK    2  A    between atoms: _3  and  _4
REMARK    3  A    between atoms: _3  and  _6
REMARK    4  A    between atoms: _6  and  _7
REMARK    5  A    between atoms: _7  and  _8
REMARK    6  A    between atoms: _8  and  _9
REMARK    7  A    between atoms: _18  and  _20
REMARK    8  A    between atoms: _20  and  _21
REMARK    9  A    between atoms: _20  and  _23
REMARK   10  A    between atoms: _23  and  _24
REMARK   11  A    between atoms: _27  and  _29
REMARK   12  A    between atoms: _29  and  _30
REMARK   13  A    between atoms: _29  and  _32
REMARK   14  A    between atoms: _32  and  _33
REMARK   15  A    between atoms: _36  and  _38
REMARK   16  A    between atoms: _38  and  _39
REMARK   17  A    between atoms: _38  and  _41
REMARK   18  A    between atoms: _41  and  _42
REMARK   19  A    between atoms: _45  and  _47
REMARK   20  A    between atoms: _47  and  _48
REMARK   21  A    between atoms: _47  and  _50
REMARK   22  A    between atoms: _50  and  _51
REMARK   23  A    between atoms: _54  and  _56
REMARK   24  A    between atoms: _56  and  _57
REMARK   25  A    between atoms: _56  and  _59
REMARK   26  A    between atoms: _59  and  _60
REMARK   27  A    between atoms: _63  and  _65
REMARK   28  A    between atoms: _65  and  _66
REMARK   29  A    between atoms: _68  and  _70
REMARK   30  A    between atoms: _70  and  _71
REMARK   31  A    between atoms: _74  and  _76
REMARK   32  A    between atoms: _76  and  _77
REMARK   33  A    between atoms: _76  and  _79
REMARK   34  A    between atoms: _79  and  _80
REMARK   35  A    between atoms: _83  and  _85
REMARK   36  A    between atoms: _85  and  _86
REMARK   37  A    between atoms: _85  and  _88
REMARK   38  A    between atoms: _88  and  _89
REMARK   39  A    between atoms: _92  and  _94
REMARK   40  A    between atoms: _94  and  _95
REMARK   41  A    between atoms: _94  and  _97
REMARK   42  A    between atoms: _97  and  _98
REMARK   43  A    between atoms: _101  and  _103
REMARK   44  A    between atoms: _103  and  _104
REMARK   45  A    between atoms: _103  and  _106
REMARK   46  A    between atoms: _109  and  _111
REMARK   47  A    between atoms: _111  and  _112
REMARK   48  A    between atoms: _111  and  _114
REMARK   49  A    between atoms: _114  and  _115
REMARK   50  A    between atoms: _115  and  _116
REMARK   51  A    between atoms: _116  and  _117
REMARK   52  A    between atoms: _117  and  _118
REMARK   53  A    between atoms: _122  and  _124
REMARK   54  A    between atoms: _124  and  _125
REMARK   55  A    between atoms: _124  and  _127
REMARK   56  A    between atoms: _127  and  _128
REMARK   57  A    between atoms: _128  and  _129
REMARK   58  A    between atoms: _131  and  _133
REMARK   59  A    between atoms: _133  and  _134
REMARK   60  A    between atoms: _133  and  _136
REMARK   61  A    between atoms: _136  and  _137
REMARK   62  A    between atoms: _140  and  _142
REMARK   63  A    between atoms: _142  and  _143
REMARK   64  A    between atoms: _145  and  _147
REMARK   65  A    between atoms: _147  and  _148
REMARK   66  A    between atoms: _150  and  _152
REMARK   67  A    between atoms: _152  and  _153
REMARK   68  A    between atoms: _152  and  _155
REMARK   69  A    between atoms: _155  and  _156
REMARK   70  A    between atoms: _159  and  _161
REMARK   71  A    between atoms: _161  and  _162
REMARK   72  A    between atoms: _164  and  _166
REMARK   73  A    between atoms: _166  and  _167
REMARK   74  A    between atoms: _169  and  _171
REMARK   75  A    between atoms: _171  and  _172
REMARK   76  A    between atoms: _171  and  _174
REMARK   77  A    between atoms: _174  and  _175
REMARK   78  A    between atoms: _181  and  _183
REMARK   79  A    between atoms: _183  and  _184
REMARK   80  A    between atoms: _183  and  _186
REMARK   81  A    between atoms: _186  and  _187
REMARK   82  A    between atoms: _190  and  _192
REMARK   83  A    between atoms: _192  and  _193
REMARK   84  A    between atoms: _192  and  _195
REMARK   85  A    between atoms: _198  and  _200
REMARK   86  A    between atoms: _200  and  _201
REMARK   87  A    between atoms: _200  and  _203
REMARK   88  A    between atoms: _203  and  _204
REMARK   89  A    between atoms: _207  and  _209
REMARK   90  A    between atoms: _209  and  _210
REMARK   91  A    between atoms: _209  and  _212
REMARK   92  A    between atoms: _212  and  _213
REMARK   93  A    between atoms: _217  and  _218
REMARK   94  A    between atoms: _223  and  _225
REMARK   95  A    between atoms: _225  and  _226
REMARK   96  A    between atoms: _225  and  _228
REMARK   97  A    between atoms: _231  and  _233
REMARK   98  A    between atoms: _233  and  _234
REMARK   99  A    between atoms: _233  and  _236
REMARK  100  A    between atoms: _236  and  _237
REMARK  101  A    between atoms: _242  and  _244
REMARK  102  A    between atoms: _244  and  _245
REMARK  103  A    between atoms: _244  and  _247
REMARK  104  A    between atoms: _247  and  _248
REMARK  105  A    between atoms: _251  and  _253
REMARK  106  A    between atoms: _253  and  _254
REMARK  107  A    between atoms: _253  and  _256
REMARK  108  A    between atoms: _256  and  _257
REMARK  109  A    between atoms: _260  and  _262
REMARK  110  A    between atoms: _262  and  _263
REMARK  111  A    between atoms: _265  and  _267
REMARK  112  A    between atoms: _267  and  _268
REMARK  113  A    between atoms: _267  and  _270
REMARK  114  A    between atoms: _270  and  _271
REMARK  115  A    between atoms: _271  and  _272
REMARK  116  A    between atoms: _272  and  _273
REMARK  117  A    between atoms: _282  and  _284
REMARK  118  A    between atoms: _284  and  _285
REMARK  119  A    between atoms: _284  and  _287
REMARK  120  A    between atoms: _287  and  _288
REMARK  121  A    between atoms: _288  and  _289
REMARK  122  A    between atoms: _289  and  _290
REMARK  123  A    between atoms: _299  and  _301
REMARK  124  A    between atoms: _301  and  _302
REMARK  125  A    between atoms: _301  and  _304
REMARK  126  A    between atoms: _304  and  _305
REMARK  127  A    between atoms: _308  and  _310
REMARK  128  A    between atoms: _310  and  _311
REMARK  129  A    between atoms: _310  and  _313
REMARK  130  A    between atoms: _313  and  _314
REMARK  131  A    between atoms: _317  and  _319
REMARK  132  A    between atoms: _319  and  _320
REMARK  133  A    between atoms: _319  and  _322
REMARK  134  A    between atoms: _322  and  _323
REMARK  135  A    between atoms: _326  and  _328
REMARK  136  A    between atoms: _328  and  _329
REMARK  137  A    between atoms: _328  and  _331
REMARK  138  A    between atoms: _331  and  _332
REMARK  139  A    between atoms: _335  and  _337
REMARK  140  A    between atoms: _337  and  _338
REMARK  141  A    between atoms: _340  and  _342
REMARK  142  A    between atoms: _342  and  _343
REMARK  143  A    between atoms: _346  and  _348
REMARK  144  A    between atoms: _348  and  _349
REMARK  145  A    between atoms: _348  and  _351
REMARK  146  A    between atoms: _351  and  _352
REMARK  147  A    between atoms: _355  and  _357
REMARK  148  A    between atoms: _357  and  _358
REMARK  149  A    between atoms: _357  and  _360
REMARK  150  A    between atoms: _360  and  _361
REMARK  151  A    between atoms: _364  and  _366
REMARK  152  A    between atoms: _366  and  _367
REMARK  153  A    between atoms: _366  and  _369
REMARK  154  A    between atoms: _369  and  _370
REMARK  155  A    between atoms: _373  and  _375
REMARK  156  A    between atoms: _375  and  _376
REMARK  157  A    between atoms: _375  and  _378
REMARK  158  A    between atoms: _381  and  _383
REMARK  159  A    between atoms: _383  and  _384
REMARK  160  A    between atoms: _383  and  _386
REMARK  161  A    between atoms: _386  and  _387
REMARK  162  A    between atoms: _390  and  _392
REMARK  163  A    between atoms: _392  and  _393
REMARK  164  A    between atoms: _392  and  _395
REMARK  165  A    between atoms: _395  and  _396
REMARK  166  A    between atoms: _396  and  _397
REMARK  167  A    between atoms: _397  and  _398
REMARK  168  A    between atoms: _398  and  _399
REMARK  169  A    between atoms: _403  and  _405
REMARK  170  A    between atoms: _405  and  _406
REMARK  171  A    between atoms: _405  and  _408
REMARK  172  A    between atoms: _408  and  _409
REMARK  173  A    between atoms: _409  and  _410
REMARK  174  A    between atoms: _412  and  _414
REMARK  175  A    between atoms: _414  and  _415
REMARK  176  A    between atoms: _414  and  _417
REMARK  177  A    between atoms: _417  and  _418
REMARK  178  A    between atoms: _421  and  _423
REMARK  179  A    between atoms: _423  and  _424
REMARK  180  A    between atoms: _426  and  _428
REMARK  181  A    between atoms: _428  and  _429
REMARK  182  A    between atoms: _431  and  _433
REMARK  183  A    between atoms: _433  and  _434
REMARK  184  A    between atoms: _433  and  _436
REMARK  185  A    between atoms: _436  and  _437
REMARK  186  A    between atoms: _440  and  _442
REMARK  187  A    between atoms: _442  and  _443
REMARK  188  A    between atoms: _445  and  _447
REMARK  189  A    between atoms: _447  and  _448
REMARK  190  A    between atoms: _450  and  _452
REMARK  191  A    between atoms: _452  and  _453
REMARK  192  A    between atoms: _452  and  _455
REMARK  193  A    between atoms: _455  and  _456
REMARK  194  A    between atoms: _462  and  _464
REMARK  195  A    between atoms: _464  and  _465
REMARK  196  A    between atoms: _464  and  _467
REMARK  197  A    between atoms: _467  and  _468
REMARK  198  A    between atoms: _471  and  _473
REMARK  199  A    between atoms: _473  and  _474
REMARK  200  A    between atoms: _473  and  _476
REMARK  201  A    between atoms: _479  and  _481
REMARK  202  A    between atoms: _481  and  _482
REMARK  203  A    between atoms: _481  and  _484
REMARK  204  A    between atoms: _484  and  _485
REMARK  205  A    between atoms: _488  and  _490
REMARK  206  A    between atoms: _490  and  _491
REMARK  207  A    between atoms: _490  and  _493
REMARK  208  A    between atoms: _493  and  _494
REMARK  209  A    between atoms: _498  and  _499
REMARK  210  A    between atoms: _504  and  _506
REMARK  211  A    between atoms: _506  and  _507
REMARK  212  A    between atoms: _506  and  _509
REMARK  213  A    between atoms: _512  and  _514
REMARK  214  A    between atoms: _514  and  _515
REMARK  215  A    between atoms: _514  and  _517
REMARK  216  A    between atoms: _517  and  _518
REMARK  217  A    between atoms: _523  and  _525
REMARK  218  A    between atoms: _525  and  _526
REMARK  219  A    between atoms: _525  and  _528
REMARK  220  A    between atoms: _528  and  _529
REMARK  221  A    between atoms: _532  and  _534
REMARK  222  A    between atoms: _534  and  _535
REMARK  223  A    between atoms: _534  and  _537
REMARK  224  A    between atoms: _537  and  _538
REMARK  225  A    between atoms: _541  and  _543
REMARK  226  A    between atoms: _543  and  _544
REMARK  227  A    between atoms: _546  and  _548
REMARK  228  A    between atoms: _548  and  _549
REMARK  229  A    between atoms: _548  and  _551
REMARK  230  A    between atoms: _551  and  _552
REMARK  231  A    between atoms: _552  and  _553
REMARK  232  A    between atoms: _553  and  _554
REMARK  233  A    between atoms: _563  and  _565
REMARK  234  A    between atoms: _565  and  _566
REMARK  235  A    between atoms: _565  and  _568
REMARK  236  A    between atoms: _568  and  _569
REMARK                            x       y       z     vdW  Elec       q    Type
REMARK                         _______ _______ _______ _____ _____    ______ ____
ROOT
ATOM      1  O   HOH     1       3.855  29.941   6.075  0.00  0.00    +0.000 OA
ENDROOT
TORSDOF 0
REMARK  Name = ../refined-set-2016/2cen/2cen_pocket.pdb
REMARK  236 active torsions:
REMARK  status: ('A' for Active; 'I' for Inactive)
REMARK    1  A    between atoms: _1  and  _3
REMARK    2  A    between atoms: _3  and  _4
REMARK    3  A    between atoms: _3  and  _6
REMARK    4  A    between atoms: _6  and  _7
REMARK    5  A    between atoms: _7  and  _8
REMARK    6  A    between atoms: _8  and  _9
REMARK    7  A    between atoms: _18  and  _20
REMARK    8  A    between atoms: _20  and  _21
REMARK    9  A    between atoms: _20  and  _23
REMARK   10  A    between atoms: _23  and  _24
REMARK   11  A    between atoms: _27  and  _29
REMARK   12  A    between atoms: _29  and  _30
REMARK   13  A    between atoms: _29  and  _32
REMARK   14  A    between atoms: _32  and  _33
REMARK   15  A    between atoms: _36  and  _38
REMARK   16  A    between atoms: _38  and  _39
REMARK   17  A    between atoms: _38  and  _41
REMARK   18  A    between atoms: _41  and  _42
REMARK   19  A    between atoms: _45  and  _47
REMARK   20  A    between atoms: _47  and  _48
REMARK   21  A    between atoms: _47  and  _50
REMARK   22  A    between atoms: _50  and  _51
REMARK   23  A    between atoms: _54  and  _56
REMARK   24  A    between atoms: _56  and  _57
REMARK   25  A    between atoms: _56  and  _59
REMARK   26  A    between atoms: _59  and  _60
REMARK   27  A    between atoms: _63  and  _65
REMARK   28  A    between atoms: _65  and  _66
REMARK   29  A    between atoms: _68  and  _70
REMARK   30  A    between atoms: _70  and  _71
REMARK   31  A    between atoms: _74  and  _76
REMARK   32  A    between atoms: _76  and  _77
REMARK   33  A    between atoms: _76  and  _79
REMARK   34  A    between atoms: _79  and  _80
REMARK   35  A    between atoms: _83  and  _85
REMARK   36  A    between atoms: _85  and  _86
REMARK   37  A    between atoms: _85  and  _88
REMARK   38  A    between atoms: _88  and  _89
REMARK   39  A    between atoms: _92  and  _94
REMARK   40  A    between atoms: _94  and  _95
REMARK   41  A    between atoms: _94  and  _97
REMARK   42  A    between atoms: _97  and  _98
REMARK   43  A    between atoms: _101  and  _103
REMARK   44  A    between atoms: _103  and  _104
REMARK   45  A    between atoms: _103  and  _106
REMARK   46  A    between atoms: _109  and  _111
REMARK   47  A    between atoms: _111  and  _112
REMARK   48  A    between atoms: _111  and  _114
REMARK   49  A    between atoms: _114  and  _115
REMARK   50  A    between atoms: _115  and  _116
REMARK   51  A    between atoms: _116  and  _117
REMARK   52  A    between atoms: _117  and  _118
REMARK   53  A    between atoms: _122  and  _124
REMARK   54  A    between atoms: _124  and  _125
REMARK   55  A    between atoms: _124  and  _127
REMARK   56  A    between atoms: _127  and  _128
REMARK   57  A    between atoms: _128  and  _129
REMARK   58  A    between atoms: _131  and  _133
REMARK   59  A    between atoms: _133  and  _134
REMARK   60  A    between atoms: _133  and  _136
REMARK   61  A    between atoms: _136  and  _137
REMARK   62  A    between atoms: _140  and  _142
REMARK   63  A    between atoms: _142  and  _143
REMARK   64  A    between atoms: _145  and  _147
REMARK   65  A    between atoms: _147  and  _148
REMARK   66  A    between atoms: _150  and  _152
REMARK   67  A    between atoms: _152  and  _153
REMARK   68  A    between atoms: _152  and  _155
REMARK   69  A    between atoms: _155  and  _156
REMARK   70  A    between atoms: _159  and  _161
REMARK   71  A    between atoms: _161  and  _162
REMARK   72  A    between atoms: _164  and  _166
REMARK   73  A    between atoms: _166  and  _167
REMARK   74  A    between atoms: _169  and  _171
REMARK   75  A    between atoms: _171  and  _172
REMARK   76  A    between atoms: _171  and  _174
REMARK   77  A    between atoms: _174  and  _175
REMARK   78  A    between atoms: _181  and  _183
REMARK   79  A    between atoms: _183  and  _184
REMARK   80  A    between atoms: _183  and  _186
REMARK   81  A    between atoms: _186  and  _187
REMARK   82  A    between atoms: _190  and  _192
REMARK   83  A    between atoms: _192  and  _193
REMARK   84  A    between atoms: _192  and  _195
REMARK   85  A    between atoms: _198  and  _200
REMARK   86  A    between atoms: _200  and  _201
REMARK   87  A    between atoms: _200  and  _203
REMARK   88  A    between atoms: _203  and  _204
REMARK   89  A    between atoms: _207  and  _209
REMARK   90  A    between atoms: _209  and  _210
REMARK   91  A    between atoms: _209  and  _212
REMARK   92  A    between atoms: _212  and  _213
REMARK   93  A    between atoms: _217  and  _218
REMARK   94  A    between atoms: _223  and  _225
REMARK   95  A    between atoms: _225  and  _226
REMARK   96  A    between atoms: _225  and  _228
REMARK   97  A    between atoms: _231  and  _233
REMARK   98  A    between atoms: _233  and  _234
REMARK   99  A    between atoms: _233  and  _236
REMARK  100  A    between atoms: _236  and  _237
REMARK  101  A    between atoms: _242  and  _244
REMARK  102  A    between atoms: _244  and  _245
REMARK  103  A    between atoms: _244  and  _247
REMARK  104  A    between atoms: _247  and  _248
REMARK  105  A    between atoms: _251  and  _253
REMARK  106  A    between atoms: _253  and  _254
REMARK  107  A    between atoms: _253  and  _256
REMARK  108  A    between atoms: _256  and  _257
REMARK  109  A    between atoms: _260  and  _262
REMARK  110  A    between atoms: _262  and  _263
REMARK  111  A    between atoms: _265  and  _267
REMARK  112  A    between atoms: _267  and  _268
REMARK  113  A    between atoms: _267  and  _270
REMARK  114  A    between atoms: _270  and  _271
REMARK  115  A    between atoms: _271  and  _272
REMARK  116  A    between atoms: _272  and  _273
REMARK  117  A    between atoms: _282  and  _284
REMARK  118  A    between atoms: _284  and  _285
REMARK  119  A    between atoms: _284  and  _287
REMARK  120  A    between atoms: _287  and  _288
REMARK  121  A    between atoms: _288  and  _289
REMARK  122  A    between atoms: _289  and  _290
REMARK  123  A    between atoms: _299  and  _301
REMARK  124  A    between atoms: _301  and  _302
REMARK  125  A    between atoms: _301  and  _304
REMARK  126  A    between atoms: _304  and  _305
REMARK  127  A    between atoms: _308  and  _310
REMARK  128  A    between atoms: _310  and  _311
REMARK  129  A    between atoms: _310  and  _313
REMARK  130  A    between atoms: _313  and  _314
REMARK  131  A    between atoms: _317  and  _319
REMARK  132  A    between atoms: _319  and  _320
REMARK  133  A    between atoms: _319  and  _322
REMARK  134  A    between atoms: _322  and  _323
REMARK  135  A    between atoms: _326  and  _328
REMARK  136  A    between atoms: _328  and  _329
REMARK  137  A    between atoms: _328  and  _331
REMARK  138  A    between atoms: _331  and  _332
REMARK  139  A    between atoms: _335  and  _337
REMARK  140  A    between atoms: _337  and  _338
REMARK  141  A    between atoms: _340  and  _342
REMARK  142  A    between atoms: _342  and  _343
REMARK  143  A    between atoms: _346  and  _348
REMARK  144  A    between atoms: _348  and  _349
REMARK  145  A    between atoms: _348  and  _351
REMARK  146  A    between atoms: _351  and  _352
REMARK  147  A    between atoms: _355  and  _357
REMARK  148  A    between atoms: _357  and  _358
REMARK  149  A    between atoms: _357  and  _360
REMARK  150  A    between atoms: _360  and  _361
REMARK  151  A    between atoms: _364  and  _366
REMARK  152  A    between atoms: _366  and  _367
REMARK  153  A    between atoms: _366  and  _369
REMARK  154  A    between atoms: _369  and  _370
REMARK  155  A    between atoms: _373  and  _375
REMARK  156  A    between atoms: _375  and  _376
REMARK  157  A    between atoms: _375  and  _378
REMARK  158  A    between atoms: _381  and  _383
REMARK  159  A    between atoms: _383  and  _384
REMARK  160  A    between atoms: _383  and  _386
REMARK  161  A    between atoms: _386  and  _387
REMARK  162  A    between atoms: _390  and  _392
REMARK  163  A    between atoms: _392  and  _393
REMARK  164  A    between atoms: _392  and  _395
REMARK  165  A    between atoms: _395  and  _396
REMARK  166  A    between atoms: _396  and  _397
REMARK  167  A    between atoms: _397  and  _398
REMARK  168  A    between atoms: _398  and  _399
REMARK  169  A    between atoms: _403  and  _405
REMARK  170  A    between atoms: _405  and  _406
REMARK  171  A    between atoms: _405  and  _408
REMARK  172  A    between atoms: _408  and  _409
REMARK  173  A    between atoms: _409  and  _410
REMARK  174  A    between atoms: _412  and  _414
REMARK  175  A    between atoms: _414  and  _415
REMARK  176  A    between atoms: _414  and  _417
REMARK  177  A    between atoms: _417  and  _418
REMARK  178  A    between atoms: _421  and  _423
REMARK  179  A    between atoms: _423  and  _424
REMARK  180  A    between atoms: _426  and  _428
REMARK  181  A    between atoms: _428  and  _429
REMARK  182  A    between atoms: _431  and  _433
REMARK  183  A    between atoms: _433  and  _434
REMARK  184  A    between atoms: _433  and  _436
REMARK  185  A    between atoms: _436  and  _437
REMARK  186  A    between atoms: _440  and  _442
REMARK  187  A    between atoms: _442  and  _443
REMARK  188  A    between atoms: _445  and  _447
REMARK  189  A    between atoms: _447  and  _448
REMARK  190  A    between atoms: _450  and  _452
REMARK  191  A    between atoms: _452  and  _453
REMARK  192  A    between atoms: _452  and  _455
REMARK  193  A    between atoms: _455  and  _456
REMARK  194  A    between atoms: _462  and  _464
REMARK  195  A    between atoms: _464  and  _465
REMARK  196  A    between atoms: _464  and  _467
REMARK  197  A    between atoms: _467  and  _468
REMARK  198  A    between atoms: _471  and  _473
REMARK  199  A    between atoms: _473  and  _474
REMARK  200  A    between atoms: _473  and  _476
REMARK  201  A    between atoms: _479  and  _481
REMARK  202  A    between atoms: _481  and  _482
REMARK  203  A    between atoms: _481  and  _484
REMARK  204  A    between atoms: _484  and  _485
REMARK  205  A    between atoms: _488  and  _490
REMARK  206  A    between atoms: _490  and  _491
REMARK  207  A    between atoms: _490  and  _493
REMARK  208  A    between atoms: _493  and  _494
REMARK  209  A    between atoms: _498  and  _499
REMARK  210  A    between atoms: _504  and  _506
REMARK  211  A    between atoms: _506  and  _507
REMARK  212  A    between atoms: _506  and  _509
REMARK  213  A    between atoms: _512  and  _514
REMARK  214  A    between atoms: _514  and  _515
REMARK  215  A    between atoms: _514  and  _517
REMARK  216  A    between atoms: _517  and  _518
REMARK  217  A    between atoms: _523  and  _525
REMARK  218  A    between atoms: _525  and  _526
REMARK  219  A    between atoms: _525  and  _528
REMARK  220  A    between atoms: _528  and  _529
REMARK  221  A    between atoms: _532  and  _534
REMARK  222  A    between atoms: _534  and  _535
REMARK  223  A    between atoms: _534  and  _537
REMARK  224  A    between atoms: _537  and  _538
REMARK  225  A    between atoms: _541  and  _543
REMARK  226  A    between atoms: _543  and  _544
REMARK  227  A    between atoms: _546  and  _548
REMARK  228  A    between atoms: _548  and  _549
REMARK  229  A    between atoms: _548  and  _551
REMARK  230  A    between atoms: _551  and  _552
REMARK  231  A    between atoms: _552  and  _553
REMARK  232  A    between atoms: _553  and  _554
REMARK  233  A    between atoms: _563  and  _565
REMARK  234  A    between atoms: _565  and  _566
REMARK  235  A    between atoms: _565  and  _568
REMARK  236  A    between atoms: _568  and  _569
REMARK                            x       y       z     vdW  Elec       q    Type
REMARK                         _______ _______ _______ _____ _____    ______ ____
ROOT
ATOM      1  O   HOH     1       6.572  34.261  10.879  0.00  0.00    +0.000 OA
ENDROOT
TORSDOF 0
REMARK  Name = ../refined-set-2016/2cen/2cen_pocket.pdb
REMARK  236 active torsions:
REMARK  status: ('A' for Active; 'I' for Inactive)
REMARK    1  A    between atoms: _1  and  _3
REMARK    2  A    between atoms: _3  and  _4
REMARK    3  A    between atoms: _3  and  _6
REMARK    4  A    between atoms: _6  and  _7
REMARK    5  A    between atoms: _7  and  _8
REMARK    6  A    between atoms: _8  and  _9
REMARK    7  A    between atoms: _18  and  _20
REMARK    8  A    between atoms: _20  and  _21
REMARK    9  A    between atoms: _20  and  _23
REMARK   10  A    between atoms: _23  and  _24
REMARK   11  A    between atoms: _27  and  _29
REMARK   12  A    between atoms: _29  and  _30
REMARK   13  A    between atoms: _29  and  _32
REMARK   14  A    between atoms: _32  and  _33
REMARK   15  A    between atoms: _36  and  _38
REMARK   16  A    between atoms: _38  and  _39
REMARK   17  A    between atoms: _38  and  _41
REMARK   18  A    between atoms: _41  and  _42
REMARK   19  A    between atoms: _45  and  _47
REMARK   20  A    between atoms: _47  and  _48
REMARK   21  A    between atoms: _47  and  _50
REMARK   22  A    between atoms: _50  and  _51
REMARK   23  A    between atoms: _54  and  _56
REMARK   24  A    between atoms: _56  and  _57
REMARK   25  A    between atoms: _56  and  _59
REMARK   26  A    between atoms: _59  and  _60
REMARK   27  A    between atoms: _63  and  _65
REMARK   28  A    between atoms: _65  and  _66
REMARK   29  A    between atoms: _68  and  _70
REMARK   30  A    between atoms: _70  and  _71
REMARK   31  A    between atoms: _74  and  _76
REMARK   32  A    between atoms: _76  and  _77
REMARK   33  A    between atoms: _76  and  _79
REMARK   34  A    between atoms: _79  and  _80
REMARK   35  A    between atoms: _83  and  _85
REMARK   36  A    between atoms: _85  and  _86
REMARK   37  A    between atoms: _85  and  _88
REMARK   38  A    between atoms: _88  and  _89
REMARK   39  A    between atoms: _92  and  _94
REMARK   40  A    between atoms: _94  and  _95
REMARK   41  A    between atoms: _94  and  _97
REMARK   42  A    between atoms: _97  and  _98
REMARK   43  A    between atoms: _101  and  _103
REMARK   44  A    between atoms: _103  and  _104
REMARK   45  A    between atoms: _103  and  _106
REMARK   46  A    between atoms: _109  and  _111
REMARK   47  A    between atoms: _111  and  _112
REMARK   48  A    between atoms: _111  and  _114
REMARK   49  A    between atoms: _114  and  _115
REMARK   50  A    between atoms: _115  and  _116
REMARK   51  A    between atoms: _116  and  _117
REMARK   52  A    between atoms: _117  and  _118
REMARK   53  A    between atoms: _122  and  _124
REMARK   54  A    between atoms: _124  and  _125
REMARK   55  A    between atoms: _124  and  _127
REMARK   56  A    between atoms: _127  and  _128
REMARK   57  A    between atoms: _128  and  _129
REMARK   58  A    between atoms: _131  and  _133
REMARK   59  A    between atoms: _133  and  _134
REMARK   60  A    between atoms: _133  and  _136
REMARK   61  A    between atoms: _136  and  _137
REMARK   62  A    between atoms: _140  and  _142
REMARK   63  A    between atoms: _142  and  _143
REMARK   64  A    between atoms: _145  and  _147
REMARK   65  A    between atoms: _147  and  _148
REMARK   66  A    between atoms: _150  and  _152
REMARK   67  A    between atoms: _152  and  _153
REMARK   68  A    between atoms: _152  and  _155
REMARK   69  A    between atoms: _155  and  _156
REMARK   70  A    between atoms: _159  and  _161
REMARK   71  A    between atoms: _161  and  _162
REMARK   72  A    between atoms: _164  and  _166
REMARK   73  A    between atoms: _166  and  _167
REMARK   74  A    between atoms: _169  and  _171
REMARK   75  A    between atoms: _171  and  _172
REMARK   76  A    between atoms: _171  and  _174
REMARK   77  A    between atoms: _174  and  _175
REMARK   78  A    between atoms: _181  and  _183
REMARK   79  A    between atoms: _183  and  _184
REMARK   80  A    between atoms: _183  and  _186
REMARK   81  A    between atoms: _186  and  _187
REMARK   82  A    between atoms: _190  and  _192
REMARK   83  A    between atoms: _192  and  _193
REMARK   84  A    between atoms: _192  and  _195
REMARK   85  A    between atoms: _198  and  _200
REMARK   86  A    between atoms: _200  and  _201
REMARK   87  A    between atoms: _200  and  _203
REMARK   88  A    between atoms: _203  and  _204
REMARK   89  A    between atoms: _207  and  _209
REMARK   90  A    between atoms: _209  and  _210
REMARK   91  A    between atoms: _209  and  _212
REMARK   92  A    between atoms: _212  and  _213
REMARK   93  A    between atoms: _217  and  _218
REMARK   94  A    between atoms: _223  and  _225
REMARK   95  A    between atoms: _225  and  _226
REMARK   96  A    between atoms: _225  and  _228
REMARK   97  A    between atoms: _231  and  _233
REMARK   98  A    between atoms: _233  and  _234
REMARK   99  A    between atoms: _233  and  _236
REMARK  100  A    between atoms: _236  and  _237
REMARK  101  A    between atoms: _242  and  _244
REMARK  102  A    between atoms: _244  and  _245
REMARK  103  A    between atoms: _244  and  _247
REMARK  104  A    between atoms: _247  and  _248
REMARK  105  A    between atoms: _251  and  _253
REMARK  106  A    between atoms: _253  and  _254
REMARK  107  A    between atoms: _253  and  _256
REMARK  108  A    between atoms: _256  and  _257
REMARK  109  A    between atoms: _260  and  _262
REMARK  110  A    between atoms: _262  and  _263
REMARK  111  A    between atoms: _265  and  _267
REMARK  112  A    between atoms: _267  and  _268
REMARK  113  A    between atoms: _267  and  _270
REMARK  114  A    between atoms: _270  and  _271
REMARK  115  A    between atoms: _271  and  _272
REMARK  116  A    between atoms: _272  and  _273
REMARK  117  A    between atoms: _282  and  _284
REMARK  118  A    between atoms: _284  and  _285
REMARK  119  A    between atoms: _284  and  _287
REMARK  120  A    between atoms: _287  and  _288
REMARK  121  A    between atoms: _288  and  _289
REMARK  122  A    between atoms: _289  and  _290
REMARK  123  A    between atoms: _299  and  _301
REMARK  124  A    between atoms: _301  and  _302
REMARK  125  A    between atoms: _301  and  _304
REMARK  126  A    between atoms: _304  and  _305
REMARK  127  A    between atoms: _308  and  _310
REMARK  128  A    between atoms: _310  and  _311
REMARK  129  A    between atoms: _310  and  _313
REMARK  130  A    between atoms: _313  and  _314
REMARK  131  A    between atoms: _317  and  _319
REMARK  132  A    between atoms: _319  and  _320
REMARK  133  A    between atoms: _319  and  _322
REMARK  134  A    between atoms: _322  and  _323
REMARK  135  A    between atoms: _326  and  _328
REMARK  136  A    between atoms: _328  and  _329
REMARK  137  A    between atoms: _328  and  _331
REMARK  138  A    between atoms: _331  and  _332
REMARK  139  A    between atoms: _335  and  _337
REMARK  140  A    between atoms: _337  and  _338
REMARK  141  A    between atoms: _340  and  _342
REMARK  142  A    between atoms: _342  and  _343
REMARK  143  A    between atoms: _346  and  _348
REMARK  144  A    between atoms: _348  and  _349
REMARK  145  A    between atoms: _348  and  _351
REMARK  146  A    between atoms: _351  and  _352
REMARK  147  A    between atoms: _355  and  _357
REMARK  148  A    between atoms: _357  and  _358
REMARK  149  A    between atoms: _357  and  _360
REMARK  150  A    between atoms: _360  and  _361
REMARK  151  A    between atoms: _364  and  _366
REMARK  152  A    between atoms: _366  and  _367
REMARK  153  A    between atoms: _366  and  _369
REMARK  154  A    between atoms: _369  and  _370
REMARK  155  A    between atoms: _373  and  _375
REMARK  156  A    between atoms: _375  and  _376
REMARK  157  A    between atoms: _375  and  _378
REMARK  158  A    between atoms: _381  and  _383
REMARK  159  A    between atoms: _383  and  _384
REMARK  160  A    between atoms: _383  and  _386
REMARK  161  A    between atoms: _386  and  _387
REMARK  162  A    between atoms: _390  and  _392
REMARK  163  A    between atoms: _392  and  _393
REMARK  164  A    between atoms: _392  and  _395
REMARK  165  A    between atoms: _395  and  _396
REMARK  166  A    between atoms: _396  and  _397
REMARK  167  A    between atoms: _397  and  _398
REMARK  168  A    between atoms: _398  and  _399
REMARK  169  A    between atoms: _403  and  _405
REMARK  170  A    between atoms: _405  and  _406
REMARK  171  A    between atoms: _405  and  _408
REMARK  172  A    between atoms: _408  and  _409
REMARK  173  A    between atoms: _409  and  _410
REMARK  174  A    between atoms: _412  and  _414
REMARK  175  A    between atoms: _414  and  _415
REMARK  176  A    between atoms: _414  and  _417
REMARK  177  A    between atoms: _417  and  _418
REMARK  178  A    between atoms: _421  and  _423
REMARK  179  A    between atoms: _423  and  _424
REMARK  180  A    between atoms: _426  and  _428
REMARK  181  A    between atoms: _428  and  _429
REMARK  182  A    between atoms: _431  and  _433
REMARK  183  A    between atoms: _433  and  _434
REMARK  184  A    between atoms: _433  and  _436
REMARK  185  A    between atoms: _436  and  _437
REMARK  186  A    between atoms: _440  and  _442
REMARK  187  A    between atoms: _442  and  _443
REMARK  188  A    between atoms: _445  and  _447
REMARK  189  A    between atoms: _447  and  _448
REMARK  190  A    between atoms: _450  and  _452
REMARK  191  A    between atoms: _452  and  _453
REMARK  192  A    between atoms: _452  and  _455
REMARK  193  A    between atoms: _455  and  _456
REMARK  194  A    between atoms: _462  and  _464
REMARK  195  A    between atoms: _464  and  _465
REMARK  196  A    between atoms: _464  and  _467
REMARK  197  A    between atoms: _467  and  _468
REMARK  198  A    between atoms: _471  and  _473
REMARK  199  A    between atoms: _473  and  _474
REMARK  200  A    between atoms: _473  and  _476
REMARK  201  A    between atoms: _479  and  _481
REMARK  202  A    between atoms: _481  and  _482
REMARK  203  A    between atoms: _481  and  _484
REMARK  204  A    between atoms: _484  and  _485
REMARK  205  A    between atoms: _488  and  _490
REMARK  206  A    between atoms: _490  and  _491
REMARK  207  A    between atoms: _490  and  _493
REMARK  208  A    between atoms: _493  and  _494
REMARK  209  A    between atoms: _498  and  _499
REMARK  210  A    between atoms: _504  and  _506
REMARK  211  A    between atoms: _506  and  _507
REMARK  212  A    between atoms: _506  and  _509
REMARK  213  A    between atoms: _512  and  _514
REMARK  214  A    between atoms: _514  and  _515
REMARK  215  A    between atoms: _514  and  _517
REMARK  216  A    between atoms: _517  and  _518
REMARK  217  A    between atoms: _523  and  _525
REMARK  218  A    between atoms: _525  and  _526
REMARK  219  A    between atoms: _525  and  _528
REMARK  220  A    between atoms: _528  and  _529
REMARK  221  A    between atoms: _532  and  _534
REMARK  222  A    between atoms: _534  and  _535
REMARK  223  A    between atoms: _534  and  _537
REMARK  224  A    between atoms: _537  and  _538
REMARK  225  A    between atoms: _541  and  _543
REMARK  226  A    between atoms: _543  and  _544
REMARK  227  A    between atoms: _546  and  _548
REMARK  228  A    between atoms: _548  and  _549
REMARK  229  A    between atoms: _548  and  _551
REMARK  230  A    between atoms: _551  and  _552
REMARK  231  A    between atoms: _552  and  _553
REMARK  232  A    between atoms: _553  and  _554
REMARK  233  A    between atoms: _563  and  _565
REMARK  234  A    between atoms: _565  and  _566
REMARK  235  A    between atoms: _565  and  _568
REMARK  236  A    between atoms: _568  and  _569
REMARK                            x       y       z     vdW  Elec       q    Type
REMARK                         _______ _______ _______ _____ _____    ______ ____
ROOT
ATOM      1  O   HOH     1       4.605  32.745   7.333  0.00  0.00    +0.000 OA
ENDROOT
TORSDOF 0
REMARK  Name = ../refined-set-2016/2cen/2cen_pocket.pdb
REMARK  236 active torsions:
REMARK  status: ('A' for Active; 'I' for Inactive)
REMARK    1  A    between atoms: _1  and  _3
REMARK    2  A    between atoms: _3  and  _4
REMARK    3  A    between atoms: _3  and  _6
REMARK    4  A    between atoms: _6  and  _7
REMARK    5  A    between atoms: _7  and  _8
REMARK    6  A    between atoms: _8  and  _9
REMARK    7  A    between atoms: _18  and  _20
REMARK    8  A    between atoms: _20  and  _21
REMARK    9  A    between atoms: _20  and  _23
REMARK   10  A    between atoms: _23  and  _24
REMARK   11  A    between atoms: _27  and  _29
REMARK   12  A    between atoms: _29  and  _30
REMARK   13  A    between atoms: _29  and  _32
REMARK   14  A    between atoms: _32  and  _33
REMARK   15  A    between atoms: _36  and  _38
REMARK   16  A    between atoms: _38  and  _39
REMARK   17  A    between atoms: _38  and  _41
REMARK   18  A    between atoms: _41  and  _42
REMARK   19  A    between atoms: _45  and  _47
REMARK   20  A    between atoms: _47  and  _48
REMARK   21  A    between atoms: _47  and  _50
REMARK   22  A    between atoms: _50  and  _51
REMARK   23  A    between atoms: _54  and  _56
REMARK   24  A    between atoms: _56  and  _57
REMARK   25  A    between atoms: _56  and  _59
REMARK   26  A    between atoms: _59  and  _60
REMARK   27  A    between atoms: _63  and  _65
REMARK   28  A    between atoms: _65  and  _66
REMARK   29  A    between atoms: _68  and  _70
REMARK   30  A    between atoms: _70  and  _71
REMARK   31  A    between atoms: _74  and  _76
REMARK   32  A    between atoms: _76  and  _77
REMARK   33  A    between atoms: _76  and  _79
REMARK   34  A    between atoms: _79  and  _80
REMARK   35  A    between atoms: _83  and  _85
REMARK   36  A    between atoms: _85  and  _86
REMARK   37  A    between atoms: _85  and  _88
REMARK   38  A    between atoms: _88  and  _89
REMARK   39  A    between atoms: _92  and  _94
REMARK   40  A    between atoms: _94  and  _95
REMARK   41  A    between atoms: _94  and  _97
REMARK   42  A    between atoms: _97  and  _98
REMARK   43  A    between atoms: _101  and  _103
REMARK   44  A    between atoms: _103  and  _104
REMARK   45  A    between atoms: _103  and  _106
REMARK   46  A    between atoms: _109  and  _111
REMARK   47  A    between atoms: _111  and  _112
REMARK   48  A    between atoms: _111  and  _114
REMARK   49  A    between atoms: _114  and  _115
REMARK   50  A    between atoms: _115  and  _116
REMARK   51  A    between atoms: _116  and  _117
REMARK   52  A    between atoms: _117  and  _118
REMARK   53  A    between atoms: _122  and  _124
REMARK   54  A    between atoms: _124  and  _125
REMARK   55  A    between atoms: _124  and  _127
REMARK   56  A    between atoms: _127  and  _128
REMARK   57  A    between atoms: _128  and  _129
REMARK   58  A    between atoms: _131  and  _133
REMARK   59  A    between atoms: _133  and  _134
REMARK   60  A    between atoms: _133  and  _136
REMARK   61  A    between atoms: _136  and  _137
REMARK   62  A    between atoms: _140  and  _142
REMARK   63  A    between atoms: _142  and  _143
REMARK   64  A    between atoms: _145  and  _147
REMARK   65  A    between atoms: _147  and  _148
REMARK   66  A    between atoms: _150  and  _152
REMARK   67  A    between atoms: _152  and  _153
REMARK   68  A    between atoms: _152  and  _155
REMARK   69  A    between atoms: _155  and  _156
REMARK   70  A    between atoms: _159  and  _161
REMARK   71  A    between atoms: _161  and  _162
REMARK   72  A    between atoms: _164  and  _166
REMARK   73  A    between atoms: _166  and  _167
REMARK   74  A    between atoms: _169  and  _171
REMARK   75  A    between atoms: _171  and  _172
REMARK   76  A    between atoms: _171  and  _174
REMARK   77  A    between atoms: _174  and  _175
REMARK   78  A    between atoms: _181  and  _183
REMARK   79  A    between atoms: _183  and  _184
REMARK   80  A    between atoms: _183  and  _186
REMARK   81  A    between atoms: _186  and  _187
REMARK   82  A    between atoms: _190  and  _192
REMARK   83  A    between atoms: _192  and  _193
REMARK   84  A    between atoms: _192  and  _195
REMARK   85  A    between atoms: _198  and  _200
REMARK   86  A    between atoms: _200  and  _201
REMARK   87  A    between atoms: _200  and  _203
REMARK   88  A    between atoms: _203  and  _204
REMARK   89  A    between atoms: _207  and  _209
REMARK   90  A    between atoms: _209  and  _210
REMARK   91  A    between atoms: _209  and  _212
REMARK   92  A    between atoms: _212  and  _213
REMARK   93  A    between atoms: _217  and  _218
REMARK   94  A    between atoms: _223  and  _225
REMARK   95  A    between atoms: _225  and  _226
REMARK   96  A    between atoms: _225  and  _228
REMARK   97  A    between atoms: _231  and  _233
REMARK   98  A    between atoms: _233  and  _234
REMARK   99  A    between atoms: _233  and  _236
REMARK  100  A    between atoms: _236  and  _237
REMARK  101  A    between atoms: _242  and  _244
REMARK  102  A    between atoms: _244  and  _245
REMARK  103  A    between atoms: _244  and  _247
REMARK  104  A    between atoms: _247  and  _248
REMARK  105  A    between atoms: _251  and  _253
REMARK  106  A    between atoms: _253  and  _254
REMARK  107  A    between atoms: _253  and  _256
REMARK  108  A    between atoms: _256  and  _257
REMARK  109  A    between atoms: _260  and  _262
REMARK  110  A    between atoms: _262  and  _263
REMARK  111  A    between atoms: _265  and  _267
REMARK  112  A    between atoms: _267  and  _268
REMARK  113  A    between atoms: _267  and  _270
REMARK  114  A    between atoms: _270  and  _271
REMARK  115  A    between atoms: _271  and  _272
REMARK  116  A    between atoms: _272  and  _273
REMARK  117  A    between atoms: _282  and  _284
REMARK  118  A    between atoms: _284  and  _285
REMARK  119  A    between atoms: _284  and  _287
REMARK  120  A    between atoms: _287  and  _288
REMARK  121  A    between atoms: _288  and  _289
REMARK  122  A    between atoms: _289  and  _290
REMARK  123  A    between atoms: _299  and  _301
REMARK  124  A    between atoms: _301  and  _302
REMARK  125  A    between atoms: _301  and  _304
REMARK  126  A    between atoms: _304  and  _305
REMARK  127  A    between atoms: _308  and  _310
REMARK  128  A    between atoms: _310  and  _311
REMARK  129  A    between atoms: _310  and  _313
REMARK  130  A    between atoms: _313  and  _314
REMARK  131  A    between atoms: _317  and  _319
REMARK  132  A    between atoms: _319  and  _320
REMARK  133  A    between atoms: _319  and  _322
REMARK  134  A    between atoms: _322  and  _323
REMARK  135  A    between atoms: _326  and  _328
REMARK  136  A    between atoms: _328  and  _329
REMARK  137  A    between atoms: _328  and  _331
REMARK  138  A    between atoms: _331  and  _332
REMARK  139  A    between atoms: _335  and  _337
REMARK  140  A    between atoms: _337  and  _338
REMARK  141  A    between atoms: _340  and  _342
REMARK  142  A    between atoms: _342  and  _343
REMARK  143  A    between atoms: _346  and  _348
REMARK  144  A    between atoms: _348  and  _349
REMARK  145  A    between atoms: _348  and  _351
REMARK  146  A    between atoms: _351  and  _352
REMARK  147  A    between atoms: _355  and  _357
REMARK  148  A    between atoms: _357  and  _358
REMARK  149  A    between atoms: _357  and  _360
REMARK  150  A    between atoms: _360  and  _361
REMARK  151  A    between atoms: _364  and  _366
REMARK  152  A    between atoms: _366  and  _367
REMARK  153  A    between atoms: _366  and  _369
REMARK  154  A    between atoms: _369  and  _370
REMARK  155  A    between atoms: _373  and  _375
REMARK  156  A    between atoms: _375  and  _376
REMARK  157  A    between atoms: _375  and  _378
REMARK  158  A    between atoms: _381  and  _383
REMARK  159  A    between atoms: _383  and  _384
REMARK  160  A    between atoms: _383  and  _386
REMARK  161  A    between atoms: _386  and  _387
REMARK  162  A    between atoms: _390  and  _392
REMARK  163  A    between atoms: _392  and  _393
REMARK  164  A    between atoms: _392  and  _395
REMARK  165  A    between atoms: _395  and  _396
REMARK  166  A    between atoms: _396  and  _397
REMARK  167  A    between atoms: _397  and  _398
REMARK  168  A    between atoms: _398  and  _399
REMARK  169  A    between atoms: _403  and  _405
REMARK  170  A    between atoms: _405  and  _406
REMARK  171  A    between atoms: _405  and  _408
REMARK  172  A    between atoms: _408  and  _409
REMARK  173  A    between atoms: _409  and  _410
REMARK  174  A    between atoms: _412  and  _414
REMARK  175  A    between atoms: _414  and  _415
REMARK  176  A    between atoms: _414  and  _417
REMARK  177  A    between atoms: _417  and  _418
REMARK  178  A    between atoms: _421  and  _423
REMARK  179  A    between atoms: _423  and  _424
REMARK  180  A    between atoms: _426  and  _428
REMARK  181  A    between atoms: _428  and  _429
REMARK  182  A    between atoms: _431  and  _433
REMARK  183  A    between atoms: _433  and  _434
REMARK  184  A    between atoms: _433  and  _436
REMARK  185  A    between atoms: _436  and  _437
REMARK  186  A    between atoms: _440  and  _442
REMARK  187  A    between atoms: _442  and  _443
REMARK  188  A    between atoms: _445  and  _447
REMARK  189  A    between atoms: _447  and  _448
REMARK  190  A    between atoms: _450  and  _452
REMARK  191  A    between atoms: _452  and  _453
REMARK  192  A    between atoms: _452  and  _455
REMARK  193  A    between atoms: _455  and  _456
REMARK  194  A    between atoms: _462  and  _464
REMARK  195  A    between atoms: _464  and  _465
REMARK  196  A    between atoms: _464  and  _467
REMARK  197  A    between atoms: _467  and  _468
REMARK  198  A    between atoms: _471  and  _473
REMARK  199  A    between atoms: _473  and  _474
REMARK  200  A    between atoms: _473  and  _476
REMARK  201  A    between atoms: _479  and  _481
REMARK  202  A    between atoms: _481  and  _482
REMARK  203  A    between atoms: _481  and  _484
REMARK  204  A    between atoms: _484  and  _485
REMARK  205  A    between atoms: _488  and  _490
REMARK  206  A    between atoms: _490  and  _491
REMARK  207  A    between atoms: _490  and  _493
REMARK  208  A    between atoms: _493  and  _494
REMARK  209  A    between atoms: _498  and  _499
REMARK  210  A    between atoms: _504  and  _506
REMARK  211  A    between atoms: _506  and  _507
REMARK  212  A    between atoms: _506  and  _509
REMARK  213  A    between atoms: _512  and  _514
REMARK  214  A    between atoms: _514  and  _515
REMARK  215  A    between atoms: _514  and  _517
REMARK  216  A    between atoms: _517  and  _518
REMARK  217  A    between atoms: _523  and  _525
REMARK  218  A    between atoms: _525  and  _526
REMARK  219  A    between atoms: _525  and  _528
REMARK  220  A    between atoms: _528  and  _529
REMARK  221  A    between atoms: _532  and  _534
REMARK  222  A    between atoms: _534  and  _535
REMARK  223  A    between atoms: _534  and  _537
REMARK  224  A    between atoms: _537  and  _538
REMARK  225  A    between atoms: _541  and  _543
REMARK  226  A    between atoms: _543  and  _544
REMARK  227  A    between atoms: _546  and  _548
REMARK  228  A    between atoms: _548  and  _549
REMARK  229  A    between atoms: _548  and  _551
REMARK  230  A    between atoms: _551  and  _552
REMARK  231  A    between atoms: _552  and  _553
REMARK  232  A    between atoms: _553  and  _554
REMARK  233  A    between atoms: _563  and  _565
REMARK  234  A    between atoms: _565  and  _566
REMARK  235  A    between atoms: _565  and  _568
REMARK  236  A    between atoms: _568  and  _569
REMARK                            x       y       z     vdW  Elec       q    Type
REMARK                         _______ _______ _______ _____ _____    ______ ____
ROOT
ATOM      1  O   HOH     1       5.301  28.282   7.747  0.00  0.00    +0.000 OA
ENDROOT
TORSDOF 0
REMARK  Name = ../refined-set-2016/2cen/2cen_pocket.pdb
REMARK  236 active torsions:
REMARK  status: ('A' for Active; 'I' for Inactive)
REMARK    1  A    between atoms: _1  and  _3
REMARK    2  A    between atoms: _3  and  _4
REMARK    3  A    between atoms: _3  and  _6
REMARK    4  A    between atoms: _6  and  _7
REMARK    5  A    between atoms: _7  and  _8
REMARK    6  A    between atoms: _8  and  _9
REMARK    7  A    between atoms: _18  and  _20
REMARK    8  A    between atoms: _20  and  _21
REMARK    9  A    between atoms: _20  and  _23
REMARK   10  A    between atoms: _23  and  _24
REMARK   11  A    between atoms: _27  and  _29
REMARK   12  A    between atoms: _29  and  _30
REMARK   13  A    between atoms: _29  and  _32
REMARK   14  A    between atoms: _32  and  _33
REMARK   15  A    between atoms: _36  and  _38
REMARK   16  A    between atoms: _38  and  _39
REMARK   17  A    between atoms: _38  and  _41
REMARK   18  A    between atoms: _41  and  _42
REMARK   19  A    between atoms: _45  and  _47
REMARK   20  A    between atoms: _47  and  _48
REMARK   21  A    between atoms: _47  and  _50
REMARK   22  A    between atoms: _50  and  _51
REMARK   23  A    between atoms: _54  and  _56
REMARK   24  A    between atoms: _56  and  _57
REMARK   25  A    between atoms: _56  and  _59
REMARK   26  A    between atoms: _59  and  _60
REMARK   27  A    between atoms: _63  and  _65
REMARK   28  A    between atoms: _65  and  _66
REMARK   29  A    between atoms: _68  and  _70
REMARK   30  A    between atoms: _70  and  _71
REMARK   31  A    between atoms: _74  and  _76
REMARK   32  A    between atoms: _76  and  _77
REMARK   33  A    between atoms: _76  and  _79
REMARK   34  A    between atoms: _79  and  _80
REMARK   35  A    between atoms: _83  and  _85
REMARK   36  A    between atoms: _85  and  _86
REMARK   37  A    between atoms: _85  and  _88
REMARK   38  A    between atoms: _88  and  _89
REMARK   39  A    between atoms: _92  and  _94
REMARK   40  A    between atoms: _94  and  _95
REMARK   41  A    between atoms: _94  and  _97
REMARK   42  A    between atoms: _97  and  _98
REMARK   43  A    between atoms: _101  and  _103
REMARK   44  A    between atoms: _103  and  _104
REMARK   45  A    between atoms: _103  and  _106
REMARK   46  A    between atoms: _109  and  _111
REMARK   47  A    between atoms: _111  and  _112
REMARK   48  A    between atoms: _111  and  _114
REMARK   49  A    between atoms: _114  and  _115
REMARK   50  A    between atoms: _115  and  _116
REMARK   51  A    between atoms: _116  and  _117
REMARK   52  A    between atoms: _117  and  _118
REMARK   53  A    between atoms: _122  and  _124
REMARK   54  A    between atoms: _124  and  _125
REMARK   55  A    between atoms: _124  and  _127
REMARK   56  A    between atoms: _127  and  _128
REMARK   57  A    between atoms: _128  and  _129
REMARK   58  A    between atoms: _131  and  _133
REMARK   59  A    between atoms: _133  and  _134
REMARK   60  A    between atoms: _133  and  _136
REMARK   61  A    between atoms: _136  and  _137
REMARK   62  A    between atoms: _140  and  _142
REMARK   63  A    between atoms: _142  and  _143
REMARK   64  A    between atoms: _145  and  _147
REMARK   65  A    between atoms: _147  and  _148
REMARK   66  A    between atoms: _150  and  _152
REMARK   67  A    between atoms: _152  and  _153
REMARK   68  A    between atoms: _152  and  _155
REMARK   69  A    between atoms: _155  and  _156
REMARK   70  A    between atoms: _159  and  _161
REMARK   71  A    between atoms: _161  and  _162
REMARK   72  A    between atoms: _164  and  _166
REMARK   73  A    between atoms: _166  and  _167
REMARK   74  A    between atoms: _169  and  _171
REMARK   75  A    between atoms: _171  and  _172
REMARK   76  A    between atoms: _171  and  _174
REMARK   77  A    between atoms: _174  and  _175
REMARK   78  A    between atoms: _181  and  _183
REMARK   79  A    between atoms: _183  and  _184
REMARK   80  A    between atoms: _183  and  _186
REMARK   81  A    between atoms: _186  and  _187
REMARK   82  A    between atoms: _190  and  _192
REMARK   83  A    between atoms: _192  and  _193
REMARK   84  A    between atoms: _192  and  _195
REMARK   85  A    between atoms: _198  and  _200
REMARK   86  A    between atoms: _200  and  _201
REMARK   87  A    between atoms: _200  and  _203
REMARK   88  A    between atoms: _203  and  _204
REMARK   89  A    between atoms: _207  and  _209
REMARK   90  A    between atoms: _209  and  _210
REMARK   91  A    between atoms: _209  and  _212
REMARK   92  A    between atoms: _212  and  _213
REMARK   93  A    between atoms: _217  and  _218
REMARK   94  A    between atoms: _223  and  _225
REMARK   95  A    between atoms: _225  and  _226
REMARK   96  A    between atoms: _225  and  _228
REMARK   97  A    between atoms: _231  and  _233
REMARK   98  A    between atoms: _233  and  _234
REMARK   99  A    between atoms: _233  and  _236
REMARK  100  A    between atoms: _236  and  _237
REMARK  101  A    between atoms: _242  and  _244
REMARK  102  A    between atoms: _244  and  _245
REMARK  103  A    between atoms: _244  and  _247
REMARK  104  A    between atoms: _247  and  _248
REMARK  105  A    between atoms: _251  and  _253
REMARK  106  A    between atoms: _253  and  _254
REMARK  107  A    between atoms: _253  and  _256
REMARK  108  A    between atoms: _256  and  _257
REMARK  109  A    between atoms: _260  and  _262
REMARK  110  A    between atoms: _262  and  _263
REMARK  111  A    between atoms: _265  and  _267
REMARK  112  A    between atoms: _267  and  _268
REMARK  113  A    between atoms: _267  and  _270
REMARK  114  A    between atoms: _270  and  _271
REMARK  115  A    between atoms: _271  and  _272
REMARK  116  A    between atoms: _272  and  _273
REMARK  117  A    between atoms: _282  and  _284
REMARK  118  A    between atoms: _284  and  _285
REMARK  119  A    between atoms: _284  and  _287
REMARK  120  A    between atoms: _287  and  _288
REMARK  121  A    between atoms: _288  and  _289
REMARK  122  A    between atoms: _289  and  _290
REMARK  123  A    between atoms: _299  and  _301
REMARK  124  A    between atoms: _301  and  _302
REMARK  125  A    between atoms: _301  and  _304
REMARK  126  A    between atoms: _304  and  _305
REMARK  127  A    between atoms: _308  and  _310
REMARK  128  A    between atoms: _310  and  _311
REMARK  129  A    between atoms: _310  and  _313
REMARK  130  A    between atoms: _313  and  _314
REMARK  131  A    between atoms: _317  and  _319
REMARK  132  A    between atoms: _319  and  _320
REMARK  133  A    between atoms: _319  and  _322
REMARK  134  A    between atoms: _322  and  _323
REMARK  135  A    between atoms: _326  and  _328
REMARK  136  A    between atoms: _328  and  _329
REMARK  137  A    between atoms: _328  and  _331
REMARK  138  A    between atoms: _331  and  _332
REMARK  139  A    between atoms: _335  and  _337
REMARK  140  A    between atoms: _337  and  _338
REMARK  141  A    between atoms: _340  and  _342
REMARK  142  A    between atoms: _342  and  _343
REMARK  143  A    between atoms: _346  and  _348
REMARK  144  A    between atoms: _348  and  _349
REMARK  145  A    between atoms: _348  and  _351
REMARK  146  A    between atoms: _351  and  _352
REMARK  147  A    between atoms: _355  and  _357
REMARK  148  A    between atoms: _357  and  _358
REMARK  149  A    between atoms: _357  and  _360
REMARK  150  A    between atoms: _360  and  _361
REMARK  151  A    between atoms: _364  and  _366
REMARK  152  A    between atoms: _366  and  _367
REMARK  153  A    between atoms: _366  and  _369
REMARK  154  A    between atoms: _369  and  _370
REMARK  155  A    between atoms: _373  and  _375
REMARK  156  A    between atoms: _375  and  _376
REMARK  157  A    between atoms: _375  and  _378
REMARK  158  A    between atoms: _381  and  _383
REMARK  159  A    between atoms: _383  and  _384
REMARK  160  A    between atoms: _383  and  _386
REMARK  161  A    between atoms: _386  and  _387
REMARK  162  A    between atoms: _390  and  _392
REMARK  163  A    between atoms: _392  and  _393
REMARK  164  A    between atoms: _392  and  _395
REMARK  165  A    between atoms: _395  and  _396
REMARK  166  A    between atoms: _396  and  _397
REMARK  167  A    between atoms: _397  and  _398
REMARK  168  A    between atoms: _398  and  _399
REMARK  169  A    between atoms: _403  and  _405
REMARK  170  A    between atoms: _405  and  _406
REMARK  171  A    between atoms: _405  and  _408
REMARK  172  A    between atoms: _408  and  _409
REMARK  173  A    between atoms: _409  and  _410
REMARK  174  A    between atoms: _412  and  _414
REMARK  175  A    between atoms: _414  and  _415
REMARK  176  A    between atoms: _414  and  _417
REMARK  177  A    between atoms: _417  and  _418
REMARK  178  A    between atoms: _421  and  _423
REMARK  179  A    between atoms: _423  and  _424
REMARK  180  A    between atoms: _426  and  _428
REMARK  181  A    between atoms: _428  and  _429
REMARK  182  A    between atoms: _431  and  _433
REMARK  183  A    between atoms: _433  and  _434
REMARK  184  A    between atoms: _433  and  _436
REMARK  185  A    between atoms: _436  and  _437
REMARK  186  A    between atoms: _440  and  _442
REMARK  187  A    between atoms: _442  and  _443
REMARK  188  A    between atoms: _445  and  _447
REMARK  189  A    between atoms: _447  and  _448
REMARK  190  A    between atoms: _450  and  _452
REMARK  191  A    between atoms: _452  and  _453
REMARK  192  A    between atoms: _452  and  _455
REMARK  193  A    between atoms: _455  and  _456
REMARK  194  A    between atoms: _462  and  _464
REMARK  195  A    between atoms: _464  and  _465
REMARK  196  A    between atoms: _464  and  _467
REMARK  197  A    between atoms: _467  and  _468
REMARK  198  A    between atoms: _471  and  _473
REMARK  199  A    between atoms: _473  and  _474
REMARK  200  A    between atoms: _473  and  _476
REMARK  201  A    between atoms: _479  and  _481
REMARK  202  A    between atoms: _481  and  _482
REMARK  203  A    between atoms: _481  and  _484
REMARK  204  A    between atoms: _484  and  _485
REMARK  205  A    between atoms: _488  and  _490
REMARK  206  A    between atoms: _490  and  _491
REMARK  207  A    between atoms: _490  and  _493
REMARK  208  A    between atoms: _493  and  _494
REMARK  209  A    between atoms: _498  and  _499
REMARK  210  A    between atoms: _504  and  _506
REMARK  211  A    between atoms: _506  and  _507
REMARK  212  A    between atoms: _506  and  _509
REMARK  213  A    between atoms: _512  and  _514
REMARK  214  A    between atoms: _514  and  _515
REMARK  215  A    between atoms: _514  and  _517
REMARK  216  A    between atoms: _517  and  _518
REMARK  217  A    between atoms: _523  and  _525
REMARK  218  A    between atoms: _525  and  _526
REMARK  219  A    between atoms: _525  and  _528
REMARK  220  A    between atoms: _528  and  _529
REMARK  221  A    between atoms: _532  and  _534
REMARK  222  A    between atoms: _534  and  _535
REMARK  223  A    between atoms: _534  and  _537
REMARK  224  A    between atoms: _537  and  _538
REMARK  225  A    between atoms: _541  and  _543
REMARK  226  A    between atoms: _543  and  _544
REMARK  227  A    between atoms: _546  and  _548
REMARK  228  A    between atoms: _548  and  _549
REMARK  229  A    between atoms: _548  and  _551
REMARK  230  A    between atoms: _551  and  _552
REMARK  231  A    between atoms: _552  and  _553
REMARK  232  A    between atoms: _553  and  _554
REMARK  233  A    between atoms: _563  and  _565
REMARK  234  A    between atoms: _565  and  _566
REMARK  235  A    between atoms: _565  and  _568
REMARK  236  A    between atoms: _568  and  _569
REMARK                            x       y       z     vdW  Elec       q    Type
REMARK                         _______ _______ _______ _____ _____    ______ ____
ROOT
ATOM      1  O   HOH     1       4.350  25.845   7.191  0.00  0.00    +0.000 OA
ENDROOT
TORSDOF 0
REMARK  Name = ../refined-set-2016/2cen/2cen_pocket.pdb
REMARK  236 active torsions:
REMARK  status: ('A' for Active; 'I' for Inactive)
REMARK    1  A    between atoms: _1  and  _3
REMARK    2  A    between atoms: _3  and  _4
REMARK    3  A    between atoms: _3  and  _6
REMARK    4  A    between atoms: _6  and  _7
REMARK    5  A    between atoms: _7  and  _8
REMARK    6  A    between atoms: _8  and  _9
REMARK    7  A    between atoms: _18  and  _20
REMARK    8  A    between atoms: _20  and  _21
REMARK    9  A    between atoms: _20  and  _23
REMARK   10  A    between atoms: _23  and  _24
REMARK   11  A    between atoms: _27  and  _29
REMARK   12  A    between atoms: _29  and  _30
REMARK   13  A    between atoms: _29  and  _32
REMARK   14  A    between atoms: _32  and  _33
REMARK   15  A    between atoms: _36  and  _38
REMARK   16  A    between atoms: _38  and  _39
REMARK   17  A    between atoms: _38  and  _41
REMARK   18  A    between atoms: _41  and  _42
REMARK   19  A    between atoms: _45  and  _47
REMARK   20  A    between atoms: _47  and  _48
REMARK   21  A    between atoms: _47  and  _50
REMARK   22  A    between atoms: _50  and  _51
REMARK   23  A    between atoms: _54  and  _56
REMARK   24  A    between atoms: _56  and  _57
REMARK   25  A    between atoms: _56  and  _59
REMARK   26  A    between atoms: _59  and  _60
REMARK   27  A    between atoms: _63  and  _65
REMARK   28  A    between atoms: _65  and  _66
REMARK   29  A    between atoms: _68  and  _70
REMARK   30  A    between atoms: _70  and  _71
REMARK   31  A    between atoms: _74  and  _76
REMARK   32  A    between atoms: _76  and  _77
REMARK   33  A    between atoms: _76  and  _79
REMARK   34  A    between atoms: _79  and  _80
REMARK   35  A    between atoms: _83  and  _85
REMARK   36  A    between atoms: _85  and  _86
REMARK   37  A    between atoms: _85  and  _88
REMARK   38  A    between atoms: _88  and  _89
REMARK   39  A    between atoms: _92  and  _94
REMARK   40  A    between atoms: _94  and  _95
REMARK   41  A    between atoms: _94  and  _97
REMARK   42  A    between atoms: _97  and  _98
REMARK   43  A    between atoms: _101  and  _103
REMARK   44  A    between atoms: _103  and  _104
REMARK   45  A    between atoms: _103  and  _106
REMARK   46  A    between atoms: _109  and  _111
REMARK   47  A    between atoms: _111  and  _112
REMARK   48  A    between atoms: _111  and  _114
REMARK   49  A    between atoms: _114  and  _115
REMARK   50  A    between atoms: _115  and  _116
REMARK   51  A    between atoms: _116  and  _117
REMARK   52  A    between atoms: _117  and  _118
REMARK   53  A    between atoms: _122  and  _124
REMARK   54  A    between atoms: _124  and  _125
REMARK   55  A    between atoms: _124  and  _127
REMARK   56  A    between atoms: _127  and  _128
REMARK   57  A    between atoms: _128  and  _129
REMARK   58  A    between atoms: _131  and  _133
REMARK   59  A    between atoms: _133  and  _134
REMARK   60  A    between atoms: _133  and  _136
REMARK   61  A    between atoms: _136  and  _137
REMARK   62  A    between atoms: _140  and  _142
REMARK   63  A    between atoms: _142  and  _143
REMARK   64  A    between atoms: _145  and  _147
REMARK   65  A    between atoms: _147  and  _148
REMARK   66  A    between atoms: _150  and  _152
REMARK   67  A    between atoms: _152  and  _153
REMARK   68  A    between atoms: _152  and  _155
REMARK   69  A    between atoms: _155  and  _156
REMARK   70  A    between atoms: _159  and  _161
REMARK   71  A    between atoms: _161  and  _162
REMARK   72  A    between atoms: _164  and  _166
REMARK   73  A    between atoms: _166  and  _167
REMARK   74  A    between atoms: _169  and  _171
REMARK   75  A    between atoms: _171  and  _172
REMARK   76  A    between atoms: _171  and  _174
REMARK   77  A    between atoms: _174  and  _175
REMARK   78  A    between atoms: _181  and  _183
REMARK   79  A    between atoms: _183  and  _184
REMARK   80  A    between atoms: _183  and  _186
REMARK   81  A    between atoms: _186  and  _187
REMARK   82  A    between atoms: _190  and  _192
REMARK   83  A    between atoms: _192  and  _193
REMARK   84  A    between atoms: _192  and  _195
REMARK   85  A    between atoms: _198  and  _200
REMARK   86  A    between atoms: _200  and  _201
REMARK   87  A    between atoms: _200  and  _203
REMARK   88  A    between atoms: _203  and  _204
REMARK   89  A    between atoms: _207  and  _209
REMARK   90  A    between atoms: _209  and  _210
REMARK   91  A    between atoms: _209  and  _212
REMARK   92  A    between atoms: _212  and  _213
REMARK   93  A    between atoms: _217  and  _218
REMARK   94  A    between atoms: _223  and  _225
REMARK   95  A    between atoms: _225  and  _226
REMARK   96  A    between atoms: _225  and  _228
REMARK   97  A    between atoms: _231  and  _233
REMARK   98  A    between atoms: _233  and  _234
REMARK   99  A    between atoms: _233  and  _236
REMARK  100  A    between atoms: _236  and  _237
REMARK  101  A    between atoms: _242  and  _244
REMARK  102  A    between atoms: _244  and  _245
REMARK  103  A    between atoms: _244  and  _247
REMARK  104  A    between atoms: _247  and  _248
REMARK  105  A    between atoms: _251  and  _253
REMARK  106  A    between atoms: _253  and  _254
REMARK  107  A    between atoms: _253  and  _256
REMARK  108  A    between atoms: _256  and  _257
REMARK  109  A    between atoms: _260  and  _262
REMARK  110  A    between atoms: _262  and  _263
REMARK  111  A    between atoms: _265  and  _267
REMARK  112  A    between atoms: _267  and  _268
REMARK  113  A    between atoms: _267  and  _270
REMARK  114  A    between atoms: _270  and  _271
REMARK  115  A    between atoms: _271  and  _272
REMARK  116  A    between atoms: _272  and  _273
REMARK  117  A    between atoms: _282  and  _284
REMARK  118  A    between atoms: _284  and  _285
REMARK  119  A    between atoms: _284  and  _287
REMARK  120  A    between atoms: _287  and  _288
REMARK  121  A    between atoms: _288  and  _289
REMARK  122  A    between atoms: _289  and  _290
REMARK  123  A    between atoms: _299  and  _301
REMARK  124  A    between atoms: _301  and  _302
REMARK  125  A    between atoms: _301  and  _304
REMARK  126  A    between atoms: _304  and  _305
REMARK  127  A    between atoms: _308  and  _310
REMARK  128  A    between atoms: _310  and  _311
REMARK  129  A    between atoms: _310  and  _313
REMARK  130  A    between atoms: _313  and  _314
REMARK  131  A    between atoms: _317  and  _319
REMARK  132  A    between atoms: _319  and  _320
REMARK  133  A    between atoms: _319  and  _322
REMARK  134  A    between atoms: _322  and  _323
REMARK  135  A    between atoms: _326  and  _328
REMARK  136  A    between atoms: _328  and  _329
REMARK  137  A    between atoms: _328  and  _331
REMARK  138  A    between atoms: _331  and  _332
REMARK  139  A    between atoms: _335  and  _337
REMARK  140  A    between atoms: _337  and  _338
REMARK  141  A    between atoms: _340  and  _342
REMARK  142  A    between atoms: _342  and  _343
REMARK  143  A    between atoms: _346  and  _348
REMARK  144  A    between atoms: _348  and  _349
REMARK  145  A    between atoms: _348  and  _351
REMARK  146  A    between atoms: _351  and  _352
REMARK  147  A    between atoms: _355  and  _357
REMARK  148  A    between atoms: _357  and  _358
REMARK  149  A    between atoms: _357  and  _360
REMARK  150  A    between atoms: _360  and  _361
REMARK  151  A    between atoms: _364  and  _366
REMARK  152  A    between atoms: _366  and  _367
REMARK  153  A    between atoms: _366  and  _369
REMARK  154  A    between atoms: _369  and  _370
REMARK  155  A    between atoms: _373  and  _375
REMARK  156  A    between atoms: _375  and  _376
REMARK  157  A    between atoms: _375  and  _378
REMARK  158  A    between atoms: _381  and  _383
REMARK  159  A    between atoms: _383  and  _384
REMARK  160  A    between atoms: _383  and  _386
REMARK  161  A    between atoms: _386  and  _387
REMARK  162  A    between atoms: _390  and  _392
REMARK  163  A    between atoms: _392  and  _393
REMARK  164  A    between atoms: _392  and  _395
REMARK  165  A    between atoms: _395  and  _396
REMARK  166  A    between atoms: _396  and  _397
REMARK  167  A    between atoms: _397  and  _398
REMARK  168  A    between atoms: _398  and  _399
REMARK  169  A    between atoms: _403  and  _405
REMARK  170  A    between atoms: _405  and  _406
REMARK  171  A    between atoms: _405  and  _408
REMARK  172  A    between atoms: _408  and  _409
REMARK  173  A    between atoms: _409  and  _410
REMARK  174  A    between atoms: _412  and  _414
REMARK  175  A    between atoms: _414  and  _415
REMARK  176  A    between atoms: _414  and  _417
REMARK  177  A    between atoms: _417  and  _418
REMARK  178  A    between atoms: _421  and  _423
REMARK  179  A    between atoms: _423  and  _424
REMARK  180  A    between atoms: _426  and  _428
REMARK  181  A    between atoms: _428  and  _429
REMARK  182  A    between atoms: _431  and  _433
REMARK  183  A    between atoms: _433  and  _434
REMARK  184  A    between atoms: _433  and  _436
REMARK  185  A    between atoms: _436  and  _437
REMARK  186  A    between atoms: _440  and  _442
REMARK  187  A    between atoms: _442  and  _443
REMARK  188  A    between atoms: _445  and  _447
REMARK  189  A    between atoms: _447  and  _448
REMARK  190  A    between atoms: _450  and  _452
REMARK  191  A    between atoms: _452  and  _453
REMARK  192  A    between atoms: _452  and  _455
REMARK  193  A    between atoms: _455  and  _456
REMARK  194  A    between atoms: _462  and  _464
REMARK  195  A    between atoms: _464  and  _465
REMARK  196  A    between atoms: _464  and  _467
REMARK  197  A    between atoms: _467  and  _468
REMARK  198  A    between atoms: _471  and  _473
REMARK  199  A    between atoms: _473  and  _474
REMARK  200  A    between atoms: _473  and  _476
REMARK  201  A    between atoms: _479  and  _481
REMARK  202  A    between atoms: _481  and  _482
REMARK  203  A    between atoms: _481  and  _484
REMARK  204  A    between atoms: _484  and  _485
REMARK  205  A    between atoms: _488  and  _490
REMARK  206  A    between atoms: _490  and  _491
REMARK  207  A    between atoms: _490  and  _493
REMARK  208  A    between atoms: _493  and  _494
REMARK  209  A    between atoms: _498  and  _499
REMARK  210  A    between atoms: _504  and  _506
REMARK  211  A    between atoms: _506  and  _507
REMARK  212  A    between atoms: _506  and  _509
REMARK  213  A    between atoms: _512  and  _514
REMARK  214  A    between atoms: _514  and  _515
REMARK  215  A    between atoms: _514  and  _517
REMARK  216  A    between atoms: _517  and  _518
REMARK  217  A    between atoms: _523  and  _525
REMARK  218  A    between atoms: _525  and  _526
REMARK  219  A    between atoms: _525  and  _528
REMARK  220  A    between atoms: _528  and  _529
REMARK  221  A    between atoms: _532  and  _534
REMARK  222  A    between atoms: _534  and  _535
REMARK  223  A    between atoms: _534  and  _537
REMARK  224  A    between atoms: _537  and  _538
REMARK  225  A    between atoms: _541  and  _543
REMARK  226  A    between atoms: _543  and  _544
REMARK  227  A    between atoms: _546  and  _548
REMARK  228  A    between atoms: _548  and  _549
REMARK  229  A    between atoms: _548  and  _551
REMARK  230  A    between atoms: _551  and  _552
REMARK  231  A    between atoms: _552  and  _553
REMARK  232  A    between atoms: _553  and  _554
REMARK  233  A    between atoms: _563  and  _565
REMARK  234  A    between atoms: _565  and  _566
REMARK  235  A    between atoms: _565  and  _568
REMARK  236  A    between atoms: _568  and  _569
REMARK                            x       y       z     vdW  Elec       q    Type
REMARK                         _______ _______ _______ _____ _____    ______ ____
ROOT
ATOM      1  O   HOH     1       8.644  33.372  12.645  0.00  0.00    +0.000 OA
ENDROOT
TORSDOF 0
REMARK  Name = ../refined-set-2016/2cen/2cen_pocket.pdb
REMARK  236 active torsions:
REMARK  status: ('A' for Active; 'I' for Inactive)
REMARK    1  A    between atoms: _1  and  _3
REMARK    2  A    between atoms: _3  and  _4
REMARK    3  A    between atoms: _3  and  _6
REMARK    4  A    between atoms: _6  and  _7
REMARK    5  A    between atoms: _7  and  _8
REMARK    6  A    between atoms: _8  and  _9
REMARK    7  A    between atoms: _18  and  _20
REMARK    8  A    between atoms: _20  and  _21
REMARK    9  A    between atoms: _20  and  _23
REMARK   10  A    between atoms: _23  and  _24
REMARK   11  A    between atoms: _27  and  _29
REMARK   12  A    between atoms: _29  and  _30
REMARK   13  A    between atoms: _29  and  _32
REMARK   14  A    between atoms: _32  and  _33
REMARK   15  A    between atoms: _36  and  _38
REMARK   16  A    between atoms: _38  and  _39
REMARK   17  A    between atoms: _38  and  _41
REMARK   18  A    between atoms: _41  and  _42
REMARK   19  A    between atoms: _45  and  _47
REMARK   20  A    between atoms: _47  and  _48
REMARK   21  A    between atoms: _47  and  _50
REMARK   22  A    between atoms: _50  and  _51
REMARK   23  A    between atoms: _54  and  _56
REMARK   24  A    between atoms: _56  and  _57
REMARK   25  A    between atoms: _56  and  _59
REMARK   26  A    between atoms: _59  and  _60
REMARK   27  A    between atoms: _63  and  _65
REMARK   28  A    between atoms: _65  and  _66
REMARK   29  A    between atoms: _68  and  _70
REMARK   30  A    between atoms: _70  and  _71
REMARK   31  A    between atoms: _74  and  _76
REMARK   32  A    between atoms: _76  and  _77
REMARK   33  A    between atoms: _76  and  _79
REMARK   34  A    between atoms: _79  and  _80
REMARK   35  A    between atoms: _83  and  _85
REMARK   36  A    between atoms: _85  and  _86
REMARK   37  A    between atoms: _85  and  _88
REMARK   38  A    between atoms: _88  and  _89
REMARK   39  A    between atoms: _92  and  _94
REMARK   40  A    between atoms: _94  and  _95
REMARK   41  A    between atoms: _94  and  _97
REMARK   42  A    between atoms: _97  and  _98
REMARK   43  A    between atoms: _101  and  _103
REMARK   44  A    between atoms: _103  and  _104
REMARK   45  A    between atoms: _103  and  _106
REMARK   46  A    between atoms: _109  and  _111
REMARK   47  A    between atoms: _111  and  _112
REMARK   48  A    between atoms: _111  and  _114
REMARK   49  A    between atoms: _114  and  _115
REMARK   50  A    between atoms: _115  and  _116
REMARK   51  A    between atoms: _116  and  _117
REMARK   52  A    between atoms: _117  and  _118
REMARK   53  A    between atoms: _122  and  _124
REMARK   54  A    between atoms: _124  and  _125
REMARK   55  A    between atoms: _124  and  _127
REMARK   56  A    between atoms: _127  and  _128
REMARK   57  A    between atoms: _128  and  _129
REMARK   58  A    between atoms: _131  and  _133
REMARK   59  A    between atoms: _133  and  _134
REMARK   60  A    between atoms: _133  and  _136
REMARK   61  A    between atoms: _136  and  _137
REMARK   62  A    between atoms: _140  and  _142
REMARK   63  A    between atoms: _142  and  _143
REMARK   64  A    between atoms: _145  and  _147
REMARK   65  A    between atoms: _147  and  _148
REMARK   66  A    between atoms: _150  and  _152
REMARK   67  A    between atoms: _152  and  _153
REMARK   68  A    between atoms: _152  and  _155
REMARK   69  A    between atoms: _155  and  _156
REMARK   70  A    between atoms: _159  and  _161
REMARK   71  A    between atoms: _161  and  _162
REMARK   72  A    between atoms: _164  and  _166
REMARK   73  A    between atoms: _166  and  _167
REMARK   74  A    between atoms: _169  and  _171
REMARK   75  A    between atoms: _171  and  _172
REMARK   76  A    between atoms: _171  and  _174
REMARK   77  A    between atoms: _174  and  _175
REMARK   78  A    between atoms: _181  and  _183
REMARK   79  A    between atoms: _183  and  _184
REMARK   80  A    between atoms: _183  and  _186
REMARK   81  A    between atoms: _186  and  _187
REMARK   82  A    between atoms: _190  and  _192
REMARK   83  A    between atoms: _192  and  _193
REMARK   84  A    between atoms: _192  and  _195
REMARK   85  A    between atoms: _198  and  _200
REMARK   86  A    between atoms: _200  and  _201
REMARK   87  A    between atoms: _200  and  _203
REMARK   88  A    between atoms: _203  and  _204
REMARK   89  A    between atoms: _207  and  _209
REMARK   90  A    between atoms: _209  and  _210
REMARK   91  A    between atoms: _209  and  _212
REMARK   92  A    between atoms: _212  and  _213
REMARK   93  A    between atoms: _217  and  _218
REMARK   94  A    between atoms: _223  and  _225
REMARK   95  A    between atoms: _225  and  _226
REMARK   96  A    between atoms: _225  and  _228
REMARK   97  A    between atoms: _231  and  _233
REMARK   98  A    between atoms: _233  and  _234
REMARK   99  A    between atoms: _233  and  _236
REMARK  100  A    between atoms: _236  and  _237
REMARK  101  A    between atoms: _242  and  _244
REMARK  102  A    between atoms: _244  and  _245
REMARK  103  A    between atoms: _244  and  _247
REMARK  104  A    between atoms: _247  and  _248
REMARK  105  A    between atoms: _251  and  _253
REMARK  106  A    between atoms: _253  and  _254
REMARK  107  A    between atoms: _253  and  _256
REMARK  108  A    between atoms: _256  and  _257
REMARK  109  A    between atoms: _260  and  _262
REMARK  110  A    between atoms: _262  and  _263
REMARK  111  A    between atoms: _265  and  _267
REMARK  112  A    between atoms: _267  and  _268
REMARK  113  A    between atoms: _267  and  _270
REMARK  114  A    between atoms: _270  and  _271
REMARK  115  A    between atoms: _271  and  _272
REMARK  116  A    between atoms: _272  and  _273
REMARK  117  A    between atoms: _282  and  _284
REMARK  118  A    between atoms: _284  and  _285
REMARK  119  A    between atoms: _284  and  _287
REMARK  120  A    between atoms: _287  and  _288
REMARK  121  A    between atoms: _288  and  _289
REMARK  122  A    between atoms: _289  and  _290
REMARK  123  A    between atoms: _299  and  _301
REMARK  124  A    between atoms: _301  and  _302
REMARK  125  A    between atoms: _301  and  _304
REMARK  126  A    between atoms: _304  and  _305
REMARK  127  A    between atoms: _308  and  _310
REMARK  128  A    between atoms: _310  and  _311
REMARK  129  A    between atoms: _310  and  _313
REMARK  130  A    between atoms: _313  and  _314
REMARK  131  A    between atoms: _317  and  _319
REMARK  132  A    between atoms: _319  and  _320
REMARK  133  A    between atoms: _319  and  _322
REMARK  134  A    between atoms: _322  and  _323
REMARK  135  A    between atoms: _326  and  _328
REMARK  136  A    between atoms: _328  and  _329
REMARK  137  A    between atoms: _328  and  _331
REMARK  138  A    between atoms: _331  and  _332
REMARK  139  A    between atoms: _335  and  _337
REMARK  140  A    between atoms: _337  and  _338
REMARK  141  A    between atoms: _340  and  _342
REMARK  142  A    between atoms: _342  and  _343
REMARK  143  A    between atoms: _346  and  _348
REMARK  144  A    between atoms: _348  and  _349
REMARK  145  A    between atoms: _348  and  _351
REMARK  146  A    between atoms: _351  and  _352
REMARK  147  A    between atoms: _355  and  _357
REMARK  148  A    between atoms: _357  and  _358
REMARK  149  A    between atoms: _357  and  _360
REMARK  150  A    between atoms: _360  and  _361
REMARK  151  A    between atoms: _364  and  _366
REMARK  152  A    between atoms: _366  and  _367
REMARK  153  A    between atoms: _366  and  _369
REMARK  154  A    between atoms: _369  and  _370
REMARK  155  A    between atoms: _373  and  _375
REMARK  156  A    between atoms: _375  and  _376
REMARK  157  A    between atoms: _375  and  _378
REMARK  158  A    between atoms: _381  and  _383
REMARK  159  A    between atoms: _383  and  _384
REMARK  160  A    between atoms: _383  and  _386
REMARK  161  A    between atoms: _386  and  _387
REMARK  162  A    between atoms: _390  and  _392
REMARK  163  A    between atoms: _392  and  _393
REMARK  164  A    between atoms: _392  and  _395
REMARK  165  A    between atoms: _395  and  _396
REMARK  166  A    between atoms: _396  and  _397
REMARK  167  A    between atoms: _397  and  _398
REMARK  168  A    between atoms: _398  and  _399
REMARK  169  A    between atoms: _403  and  _405
REMARK  170  A    between atoms: _405  and  _406
REMARK  171  A    between atoms: _405  and  _408
REMARK  172  A    between atoms: _408  and  _409
REMARK  173  A    between atoms: _409  and  _410
REMARK  174  A    between atoms: _412  and  _414
REMARK  175  A    between atoms: _414  and  _415
REMARK  176  A    between atoms: _414  and  _417
REMARK  177  A    between atoms: _417  and  _418
REMARK  178  A    between atoms: _421  and  _423
REMARK  179  A    between atoms: _423  and  _424
REMARK  180  A    between atoms: _426  and  _428
REMARK  181  A    between atoms: _428  and  _429
REMARK  182  A    between atoms: _431  and  _433
REMARK  183  A    between atoms: _433  and  _434
REMARK  184  A    between atoms: _433  and  _436
REMARK  185  A    between atoms: _436  and  _437
REMARK  186  A    between atoms: _440  and  _442
REMARK  187  A    between atoms: _442  and  _443
REMARK  188  A    between atoms: _445  and  _447
REMARK  189  A    between atoms: _447  and  _448
REMARK  190  A    between atoms: _450  and  _452
REMARK  191  A    between atoms: _452  and  _453
REMARK  192  A    between atoms: _452  and  _455
REMARK  193  A    between atoms: _455  and  _456
REMARK  194  A    between atoms: _462  and  _464
REMARK  195  A    between atoms: _464  and  _465
REMARK  196  A    between atoms: _464  and  _467
REMARK  197  A    between atoms: _467  and  _468
REMARK  198  A    between atoms: _471  and  _473
REMARK  199  A    between atoms: _473  and  _474
REMARK  200  A    between atoms: _473  and  _476
REMARK  201  A    between atoms: _479  and  _481
REMARK  202  A    between atoms: _481  and  _482
REMARK  203  A    between atoms: _481  and  _484
REMARK  204  A    between atoms: _484  and  _485
REMARK  205  A    between atoms: _488  and  _490
REMARK  206  A    between atoms: _490  and  _491
REMARK  207  A    between atoms: _490  and  _493
REMARK  208  A    between atoms: _493  and  _494
REMARK  209  A    between atoms: _498  and  _499
REMARK  210  A    between atoms: _504  and  _506
REMARK  211  A    between atoms: _506  and  _507
REMARK  212  A    between atoms: _506  and  _509
REMARK  213  A    between atoms: _512  and  _514
REMARK  214  A    between atoms: _514  and  _515
REMARK  215  A    between atoms: _514  and  _517
REMARK  216  A    between atoms: _517  and  _518
REMARK  217  A    between atoms: _523  and  _525
REMARK  218  A    between atoms: _525  and  _526
REMARK  219  A    between atoms: _525  and  _528
REMARK  220  A    between atoms: _528  and  _529
REMARK  221  A    between atoms: _532  and  _534
REMARK  222  A    between atoms: _534  and  _535
REMARK  223  A    between atoms: _534  and  _537
REMARK  224  A    between atoms: _537  and  _538
REMARK  225  A    between atoms: _541  and  _543
REMARK  226  A    between atoms: _543  and  _544
REMARK  227  A    between atoms: _546  and  _548
REMARK  228  A    between atoms: _548  and  _549
REMARK  229  A    between atoms: _548  and  _551
REMARK  230  A    between atoms: _551  and  _552
REMARK  231  A    between atoms: _552  and  _553
REMARK  232  A    between atoms: _553  and  _554
REMARK  233  A    between atoms: _563  and  _565
REMARK  234  A    between atoms: _565  and  _566
REMARK  235  A    between atoms: _565  and  _568
REMARK  236  A    between atoms: _568  and  _569
REMARK                            x       y       z     vdW  Elec       q    Type
REMARK                         _______ _______ _______ _____ _____    ______ ____
ROOT
ATOM      1  O   HOH     1      20.403  21.150  16.496  0.00  0.00    +0.000 OA
ENDROOT
TORSDOF 0
REMARK  Name = ../refined-set-2016/2cen/2cen_pocket.pdb
REMARK  236 active torsions:
REMARK  status: ('A' for Active; 'I' for Inactive)
REMARK    1  A    between atoms: _1  and  _3
REMARK    2  A    between atoms: _3  and  _4
REMARK    3  A    between atoms: _3  and  _6
REMARK    4  A    between atoms: _6  and  _7
REMARK    5  A    between atoms: _7  and  _8
REMARK    6  A    between atoms: _8  and  _9
REMARK    7  A    between atoms: _18  and  _20
REMARK    8  A    between atoms: _20  and  _21
REMARK    9  A    between atoms: _20  and  _23
REMARK   10  A    between atoms: _23  and  _24
REMARK   11  A    between atoms: _27  and  _29
REMARK   12  A    between atoms: _29  and  _30
REMARK   13  A    between atoms: _29  and  _32
REMARK   14  A    between atoms: _32  and  _33
REMARK   15  A    between atoms: _36  and  _38
REMARK   16  A    between atoms: _38  and  _39
REMARK   17  A    between atoms: _38  and  _41
REMARK   18  A    between atoms: _41  and  _42
REMARK   19  A    between atoms: _45  and  _47
REMARK   20  A    between atoms: _47  and  _48
REMARK   21  A    between atoms: _47  and  _50
REMARK   22  A    between atoms: _50  and  _51
REMARK   23  A    between atoms: _54  and  _56
REMARK   24  A    between atoms: _56  and  _57
REMARK   25  A    between atoms: _56  and  _59
REMARK   26  A    between atoms: _59  and  _60
REMARK   27  A    between atoms: _63  and  _65
REMARK   28  A    between atoms: _65  and  _66
REMARK   29  A    between atoms: _68  and  _70
REMARK   30  A    between atoms: _70  and  _71
REMARK   31  A    between atoms: _74  and  _76
REMARK   32  A    between atoms: _76  and  _77
REMARK   33  A    between atoms: _76  and  _79
REMARK   34  A    between atoms: _79  and  _80
REMARK   35  A    between atoms: _83  and  _85
REMARK   36  A    between atoms: _85  and  _86
REMARK   37  A    between atoms: _85  and  _88
REMARK   38  A    between atoms: _88  and  _89
REMARK   39  A    between atoms: _92  and  _94
REMARK   40  A    between atoms: _94  and  _95
REMARK   41  A    between atoms: _94  and  _97
REMARK   42  A    between atoms: _97  and  _98
REMARK   43  A    between atoms: _101  and  _103
REMARK   44  A    between atoms: _103  and  _104
REMARK   45  A    between atoms: _103  and  _106
REMARK   46  A    between atoms: _109  and  _111
REMARK   47  A    between atoms: _111  and  _112
REMARK   48  A    between atoms: _111  and  _114
REMARK   49  A    between atoms: _114  and  _115
REMARK   50  A    between atoms: _115  and  _116
REMARK   51  A    between atoms: _116  and  _117
REMARK   52  A    between atoms: _117  and  _118
REMARK   53  A    between atoms: _122  and  _124
REMARK   54  A    between atoms: _124  and  _125
REMARK   55  A    between atoms: _124  and  _127
REMARK   56  A    between atoms: _127  and  _128
REMARK   57  A    between atoms: _128  and  _129
REMARK   58  A    between atoms: _131  and  _133
REMARK   59  A    between atoms: _133  and  _134
REMARK   60  A    between atoms: _133  and  _136
REMARK   61  A    between atoms: _136  and  _137
REMARK   62  A    between atoms: _140  and  _142
REMARK   63  A    between atoms: _142  and  _143
REMARK   64  A    between atoms: _145  and  _147
REMARK   65  A    between atoms: _147  and  _148
REMARK   66  A    between atoms: _150  and  _152
REMARK   67  A    between atoms: _152  and  _153
REMARK   68  A    between atoms: _152  and  _155
REMARK   69  A    between atoms: _155  and  _156
REMARK   70  A    between atoms: _159  and  _161
REMARK   71  A    between atoms: _161  and  _162
REMARK   72  A    between atoms: _164  and  _166
REMARK   73  A    between atoms: _166  and  _167
REMARK   74  A    between atoms: _169  and  _171
REMARK   75  A    between atoms: _171  and  _172
REMARK   76  A    between atoms: _171  and  _174
REMARK   77  A    between atoms: _174  and  _175
REMARK   78  A    between atoms: _181  and  _183
REMARK   79  A    between atoms: _183  and  _184
REMARK   80  A    between atoms: _183  and  _186
REMARK   81  A    between atoms: _186  and  _187
REMARK   82  A    between atoms: _190  and  _192
REMARK   83  A    between atoms: _192  and  _193
REMARK   84  A    between atoms: _192  and  _195
REMARK   85  A    between atoms: _198  and  _200
REMARK   86  A    between atoms: _200  and  _201
REMARK   87  A    between atoms: _200  and  _203
REMARK   88  A    between atoms: _203  and  _204
REMARK   89  A    between atoms: _207  and  _209
REMARK   90  A    between atoms: _209  and  _210
REMARK   91  A    between atoms: _209  and  _212
REMARK   92  A    between atoms: _212  and  _213
REMARK   93  A    between atoms: _217  and  _218
REMARK   94  A    between atoms: _223  and  _225
REMARK   95  A    between atoms: _225  and  _226
REMARK   96  A    between atoms: _225  and  _228
REMARK   97  A    between atoms: _231  and  _233
REMARK   98  A    between atoms: _233  and  _234
REMARK   99  A    between atoms: _233  and  _236
REMARK  100  A    between atoms: _236  and  _237
REMARK  101  A    between atoms: _242  and  _244
REMARK  102  A    between atoms: _244  and  _245
REMARK  103  A    between atoms: _244  and  _247
REMARK  104  A    between atoms: _247  and  _248
REMARK  105  A    between atoms: _251  and  _253
REMARK  106  A    between atoms: _253  and  _254
REMARK  107  A    between atoms: _253  and  _256
REMARK  108  A    between atoms: _256  and  _257
REMARK  109  A    between atoms: _260  and  _262
REMARK  110  A    between atoms: _262  and  _263
REMARK  111  A    between atoms: _265  and  _267
REMARK  112  A    between atoms: _267  and  _268
REMARK  113  A    between atoms: _267  and  _270
REMARK  114  A    between atoms: _270  and  _271
REMARK  115  A    between atoms: _271  and  _272
REMARK  116  A    between atoms: _272  and  _273
REMARK  117  A    between atoms: _282  and  _284
REMARK  118  A    between atoms: _284  and  _285
REMARK  119  A    between atoms: _284  and  _287
REMARK  120  A    between atoms: _287  and  _288
REMARK  121  A    between atoms: _288  and  _289
REMARK  122  A    between atoms: _289  and  _290
REMARK  123  A    between atoms: _299  and  _301
REMARK  124  A    between atoms: _301  and  _302
REMARK  125  A    between atoms: _301  and  _304
REMARK  126  A    between atoms: _304  and  _305
REMARK  127  A    between atoms: _308  and  _310
REMARK  128  A    between atoms: _310  and  _311
REMARK  129  A    between atoms: _310  and  _313
REMARK  130  A    between atoms: _313  and  _314
REMARK  131  A    between atoms: _317  and  _319
REMARK  132  A    between atoms: _319  and  _320
REMARK  133  A    between atoms: _319  and  _322
REMARK  134  A    between atoms: _322  and  _323
REMARK  135  A    between atoms: _326  and  _328
REMARK  136  A    between atoms: _328  and  _329
REMARK  137  A    between atoms: _328  and  _331
REMARK  138  A    between atoms: _331  and  _332
REMARK  139  A    between atoms: _335  and  _337
REMARK  140  A    between atoms: _337  and  _338
REMARK  141  A    between atoms: _340  and  _342
REMARK  142  A    between atoms: _342  and  _343
REMARK  143  A    between atoms: _346  and  _348
REMARK  144  A    between atoms: _348  and  _349
REMARK  145  A    between atoms: _348  and  _351
REMARK  146  A    between atoms: _351  and  _352
REMARK  147  A    between atoms: _355  and  _357
REMARK  148  A    between atoms: _357  and  _358
REMARK  149  A    between atoms: _357  and  _360
REMARK  150  A    between atoms: _360  and  _361
REMARK  151  A    between atoms: _364  and  _366
REMARK  152  A    between atoms: _366  and  _367
REMARK  153  A    between atoms: _366  and  _369
REMARK  154  A    between atoms: _369  and  _370
REMARK  155  A    between atoms: _373  and  _375
REMARK  156  A    between atoms: _375  and  _376
REMARK  157  A    between atoms: _375  and  _378
REMARK  158  A    between atoms: _381  and  _383
REMARK  159  A    between atoms: _383  and  _384
REMARK  160  A    between atoms: _383  and  _386
REMARK  161  A    between atoms: _386  and  _387
REMARK  162  A    between atoms: _390  and  _392
REMARK  163  A    between atoms: _392  and  _393
REMARK  164  A    between atoms: _392  and  _395
REMARK  165  A    between atoms: _395  and  _396
REMARK  166  A    between atoms: _396  and  _397
REMARK  167  A    between atoms: _397  and  _398
REMARK  168  A    between atoms: _398  and  _399
REMARK  169  A    between atoms: _403  and  _405
REMARK  170  A    between atoms: _405  and  _406
REMARK  171  A    between atoms: _405  and  _408
REMARK  172  A    between atoms: _408  and  _409
REMARK  173  A    between atoms: _409  and  _410
REMARK  174  A    between atoms: _412  and  _414
REMARK  175  A    between atoms: _414  and  _415
REMARK  176  A    between atoms: _414  and  _417
REMARK  177  A    between atoms: _417  and  _418
REMARK  178  A    between atoms: _421  and  _423
REMARK  179  A    between atoms: _423  and  _424
REMARK  180  A    between atoms: _426  and  _428
REMARK  181  A    between atoms: _428  and  _429
REMARK  182  A    between atoms: _431  and  _433
REMARK  183  A    between atoms: _433  and  _434
REMARK  184  A    between atoms: _433  and  _436
REMARK  185  A    between atoms: _436  and  _437
REMARK  186  A    between atoms: _440  and  _442
REMARK  187  A    between atoms: _442  and  _443
REMARK  188  A    between atoms: _445  and  _447
REMARK  189  A    between atoms: _447  and  _448
REMARK  190  A    between atoms: _450  and  _452
REMARK  191  A    between atoms: _452  and  _453
REMARK  192  A    between atoms: _452  and  _455
REMARK  193  A    between atoms: _455  and  _456
REMARK  194  A    between atoms: _462  and  _464
REMARK  195  A    between atoms: _464  and  _465
REMARK  196  A    between atoms: _464  and  _467
REMARK  197  A    between atoms: _467  and  _468
REMARK  198  A    between atoms: _471  and  _473
REMARK  199  A    between atoms: _473  and  _474
REMARK  200  A    between atoms: _473  and  _476
REMARK  201  A    between atoms: _479  and  _481
REMARK  202  A    between atoms: _481  and  _482
REMARK  203  A    between atoms: _481  and  _484
REMARK  204  A    between atoms: _484  and  _485
REMARK  205  A    between atoms: _488  and  _490
REMARK  206  A    between atoms: _490  and  _491
REMARK  207  A    between atoms: _490  and  _493
REMARK  208  A    between atoms: _493  and  _494
REMARK  209  A    between atoms: _498  and  _499
REMARK  210  A    between atoms: _504  and  _506
REMARK  211  A    between atoms: _506  and  _507
REMARK  212  A    between atoms: _506  and  _509
REMARK  213  A    between atoms: _512  and  _514
REMARK  214  A    between atoms: _514  and  _515
REMARK  215  A    between atoms: _514  and  _517
REMARK  216  A    between atoms: _517  and  _518
REMARK  217  A    between atoms: _523  and  _525
REMARK  218  A    between atoms: _525  and  _526
REMARK  219  A    between atoms: _525  and  _528
REMARK  220  A    between atoms: _528  and  _529
REMARK  221  A    between atoms: _532  and  _534
REMARK  222  A    between atoms: _534  and  _535
REMARK  223  A    between atoms: _534  and  _537
REMARK  224  A    between atoms: _537  and  _538
REMARK  225  A    between atoms: _541  and  _543
REMARK  226  A    between atoms: _543  and  _544
REMARK  227  A    between atoms: _546  and  _548
REMARK  228  A    between atoms: _548  and  _549
REMARK  229  A    between atoms: _548  and  _551
REMARK  230  A    between atoms: _551  and  _552
REMARK  231  A    between atoms: _552  and  _553
REMARK  232  A    between atoms: _553  and  _554
REMARK  233  A    between atoms: _563  and  _565
REMARK  234  A    between atoms: _565  and  _566
REMARK  235  A    between atoms: _565  and  _568
REMARK  236  A    between atoms: _568  and  _569
REMARK                            x       y       z     vdW  Elec       q    Type
REMARK                         _______ _______ _______ _____ _____    ______ ____
ROOT
ATOM      1  O   HOH     1       5.746  27.483  -2.795  0.00  0.00    +0.000 OA
ENDROOT
TORSDOF 0
REMARK  Name = ../refined-set-2016/2cen/2cen_pocket.pdb
REMARK  236 active torsions:
REMARK  status: ('A' for Active; 'I' for Inactive)
REMARK    1  A    between atoms: _1  and  _3
REMARK    2  A    between atoms: _3  and  _4
REMARK    3  A    between atoms: _3  and  _6
REMARK    4  A    between atoms: _6  and  _7
REMARK    5  A    between atoms: _7  and  _8
REMARK    6  A    between atoms: _8  and  _9
REMARK    7  A    between atoms: _18  and  _20
REMARK    8  A    between atoms: _20  and  _21
REMARK    9  A    between atoms: _20  and  _23
REMARK   10  A    between atoms: _23  and  _24
REMARK   11  A    between atoms: _27  and  _29
REMARK   12  A    between atoms: _29  and  _30
REMARK   13  A    between atoms: _29  and  _32
REMARK   14  A    between atoms: _32  and  _33
REMARK   15  A    between atoms: _36  and  _38
REMARK   16  A    between atoms: _38  and  _39
REMARK   17  A    between atoms: _38  and  _41
REMARK   18  A    between atoms: _41  and  _42
REMARK   19  A    between atoms: _45  and  _47
REMARK   20  A    between atoms: _47  and  _48
REMARK   21  A    between atoms: _47  and  _50
REMARK   22  A    between atoms: _50  and  _51
REMARK   23  A    between atoms: _54  and  _56
REMARK   24  A    between atoms: _56  and  _57
REMARK   25  A    between atoms: _56  and  _59
REMARK   26  A    between atoms: _59  and  _60
REMARK   27  A    between atoms: _63  and  _65
REMARK   28  A    between atoms: _65  and  _66
REMARK   29  A    between atoms: _68  and  _70
REMARK   30  A    between atoms: _70  and  _71
REMARK   31  A    between atoms: _74  and  _76
REMARK   32  A    between atoms: _76  and  _77
REMARK   33  A    between atoms: _76  and  _79
REMARK   34  A    between atoms: _79  and  _80
REMARK   35  A    between atoms: _83  and  _85
REMARK   36  A    between atoms: _85  and  _86
REMARK   37  A    between atoms: _85  and  _88
REMARK   38  A    between atoms: _88  and  _89
REMARK   39  A    between atoms: _92  and  _94
REMARK   40  A    between atoms: _94  and  _95
REMARK   41  A    between atoms: _94  and  _97
REMARK   42  A    between atoms: _97  and  _98
REMARK   43  A    between atoms: _101  and  _103
REMARK   44  A    between atoms: _103  and  _104
REMARK   45  A    between atoms: _103  and  _106
REMARK   46  A    between atoms: _109  and  _111
REMARK   47  A    between atoms: _111  and  _112
REMARK   48  A    between atoms: _111  and  _114
REMARK   49  A    between atoms: _114  and  _115
REMARK   50  A    between atoms: _115  and  _116
REMARK   51  A    between atoms: _116  and  _117
REMARK   52  A    between atoms: _117  and  _118
REMARK   53  A    between atoms: _122  and  _124
REMARK   54  A    between atoms: _124  and  _125
REMARK   55  A    between atoms: _124  and  _127
REMARK   56  A    between atoms: _127  and  _128
REMARK   57  A    between atoms: _128  and  _129
REMARK   58  A    between atoms: _131  and  _133
REMARK   59  A    between atoms: _133  and  _134
REMARK   60  A    between atoms: _133  and  _136
REMARK   61  A    between atoms: _136  and  _137
REMARK   62  A    between atoms: _140  and  _142
REMARK   63  A    between atoms: _142  and  _143
REMARK   64  A    between atoms: _145  and  _147
REMARK   65  A    between atoms: _147  and  _148
REMARK   66  A    between atoms: _150  and  _152
REMARK   67  A    between atoms: _152  and  _153
REMARK   68  A    between atoms: _152  and  _155
REMARK   69  A    between atoms: _155  and  _156
REMARK   70  A    between atoms: _159  and  _161
REMARK   71  A    between atoms: _161  and  _162
REMARK   72  A    between atoms: _164  and  _166
REMARK   73  A    between atoms: _166  and  _167
REMARK   74  A    between atoms: _169  and  _171
REMARK   75  A    between atoms: _171  and  _172
REMARK   76  A    between atoms: _171  and  _174
REMARK   77  A    between atoms: _174  and  _175
REMARK   78  A    between atoms: _181  and  _183
REMARK   79  A    between atoms: _183  and  _184
REMARK   80  A    between atoms: _183  and  _186
REMARK   81  A    between atoms: _186  and  _187
REMARK   82  A    between atoms: _190  and  _192
REMARK   83  A    between atoms: _192  and  _193
REMARK   84  A    between atoms: _192  and  _195
REMARK   85  A    between atoms: _198  and  _200
REMARK   86  A    between atoms: _200  and  _201
REMARK   87  A    between atoms: _200  and  _203
REMARK   88  A    between atoms: _203  and  _204
REMARK   89  A    between atoms: _207  and  _209
REMARK   90  A    between atoms: _209  and  _210
REMARK   91  A    between atoms: _209  and  _212
REMARK   92  A    between atoms: _212  and  _213
REMARK   93  A    between atoms: _217  and  _218
REMARK   94  A    between atoms: _223  and  _225
REMARK   95  A    between atoms: _225  and  _226
REMARK   96  A    between atoms: _225  and  _228
REMARK   97  A    between atoms: _231  and  _233
REMARK   98  A    between atoms: _233  and  _234
REMARK   99  A    between atoms: _233  and  _236
REMARK  100  A    between atoms: _236  and  _237
REMARK  101  A    between atoms: _242  and  _244
REMARK  102  A    between atoms: _244  and  _245
REMARK  103  A    between atoms: _244  and  _247
REMARK  104  A    between atoms: _247  and  _248
REMARK  105  A    between atoms: _251  and  _253
REMARK  106  A    between atoms: _253  and  _254
REMARK  107  A    between atoms: _253  and  _256
REMARK  108  A    between atoms: _256  and  _257
REMARK  109  A    between atoms: _260  and  _262
REMARK  110  A    between atoms: _262  and  _263
REMARK  111  A    between atoms: _265  and  _267
REMARK  112  A    between atoms: _267  and  _268
REMARK  113  A    between atoms: _267  and  _270
REMARK  114  A    between atoms: _270  and  _271
REMARK  115  A    between atoms: _271  and  _272
REMARK  116  A    between atoms: _272  and  _273
REMARK  117  A    between atoms: _282  and  _284
REMARK  118  A    between atoms: _284  and  _285
REMARK  119  A    between atoms: _284  and  _287
REMARK  120  A    between atoms: _287  and  _288
REMARK  121  A    between atoms: _288  and  _289
REMARK  122  A    between atoms: _289  and  _290
REMARK  123  A    between atoms: _299  and  _301
REMARK  124  A    between atoms: _301  and  _302
REMARK  125  A    between atoms: _301  and  _304
REMARK  126  A    between atoms: _304  and  _305
REMARK  127  A    between atoms: _308  and  _310
REMARK  128  A    between atoms: _310  and  _311
REMARK  129  A    between atoms: _310  and  _313
REMARK  130  A    between atoms: _313  and  _314
REMARK  131  A    between atoms: _317  and  _319
REMARK  132  A    between atoms: _319  and  _320
REMARK  133  A    between atoms: _319  and  _322
REMARK  134  A    between atoms: _322  and  _323
REMARK  135  A    between atoms: _326  and  _328
REMARK  136  A    between atoms: _328  and  _329
REMARK  137  A    between atoms: _328  and  _331
REMARK  138  A    between atoms: _331  and  _332
REMARK  139  A    between atoms: _335  and  _337
REMARK  140  A    between atoms: _337  and  _338
REMARK  141  A    between atoms: _340  and  _342
REMARK  142  A    between atoms: _342  and  _343
REMARK  143  A    between atoms: _346  and  _348
REMARK  144  A    between atoms: _348  and  _349
REMARK  145  A    between atoms: _348  and  _351
REMARK  146  A    between atoms: _351  and  _352
REMARK  147  A    between atoms: _355  and  _357
REMARK  148  A    between atoms: _357  and  _358
REMARK  149  A    between atoms: _357  and  _360
REMARK  150  A    between atoms: _360  and  _361
REMARK  151  A    between atoms: _364  and  _366
REMARK  152  A    between atoms: _366  and  _367
REMARK  153  A    between atoms: _366  and  _369
REMARK  154  A    between atoms: _369  and  _370
REMARK  155  A    between atoms: _373  and  _375
REMARK  156  A    between atoms: _375  and  _376
REMARK  157  A    between atoms: _375  and  _378
REMARK  158  A    between atoms: _381  and  _383
REMARK  159  A    between atoms: _383  and  _384
REMARK  160  A    between atoms: _383  and  _386
REMARK  161  A    between atoms: _386  and  _387
REMARK  162  A    between atoms: _390  and  _392
REMARK  163  A    between atoms: _392  and  _393
REMARK  164  A    between atoms: _392  and  _395
REMARK  165  A    between atoms: _395  and  _396
REMARK  166  A    between atoms: _396  and  _397
REMARK  167  A    between atoms: _397  and  _398
REMARK  168  A    between atoms: _398  and  _399
REMARK  169  A    between atoms: _403  and  _405
REMARK  170  A    between atoms: _405  and  _406
REMARK  171  A    between atoms: _405  and  _408
REMARK  172  A    between atoms: _408  and  _409
REMARK  173  A    between atoms: _409  and  _410
REMARK  174  A    between atoms: _412  and  _414
REMARK  175  A    between atoms: _414  and  _415
REMARK  176  A    between atoms: _414  and  _417
REMARK  177  A    between atoms: _417  and  _418
REMARK  178  A    between atoms: _421  and  _423
REMARK  179  A    between atoms: _423  and  _424
REMARK  180  A    between atoms: _426  and  _428
REMARK  181  A    between atoms: _428  and  _429
REMARK  182  A    between atoms: _431  and  _433
REMARK  183  A    between atoms: _433  and  _434
REMARK  184  A    between atoms: _433  and  _436
REMARK  185  A    between atoms: _436  and  _437
REMARK  186  A    between atoms: _440  and  _442
REMARK  187  A    between atoms: _442  and  _443
REMARK  188  A    between atoms: _445  and  _447
REMARK  189  A    between atoms: _447  and  _448
REMARK  190  A    between atoms: _450  and  _452
REMARK  191  A    between atoms: _452  and  _453
REMARK  192  A    between atoms: _452  and  _455
REMARK  193  A    between atoms: _455  and  _456
REMARK  194  A    between atoms: _462  and  _464
REMARK  195  A    between atoms: _464  and  _465
REMARK  196  A    between atoms: _464  and  _467
REMARK  197  A    between atoms: _467  and  _468
REMARK  198  A    between atoms: _471  and  _473
REMARK  199  A    between atoms: _473  and  _474
REMARK  200  A    between atoms: _473  and  _476
REMARK  201  A    between atoms: _479  and  _481
REMARK  202  A    between atoms: _481  and  _482
REMARK  203  A    between atoms: _481  and  _484
REMARK  204  A    between atoms: _484  and  _485
REMARK  205  A    between atoms: _488  and  _490
REMARK  206  A    between atoms: _490  and  _491
REMARK  207  A    between atoms: _490  and  _493
REMARK  208  A    between atoms: _493  and  _494
REMARK  209  A    between atoms: _498  and  _499
REMARK  210  A    between atoms: _504  and  _506
REMARK  211  A    between atoms: _506  and  _507
REMARK  212  A    between atoms: _506  and  _509
REMARK  213  A    between atoms: _512  and  _514
REMARK  214  A    between atoms: _514  and  _515
REMARK  215  A    between atoms: _514  and  _517
REMARK  216  A    between atoms: _517  and  _518
REMARK  217  A    between atoms: _523  and  _525
REMARK  218  A    between atoms: _525  and  _526
REMARK  219  A    between atoms: _525  and  _528
REMARK  220  A    between atoms: _528  and  _529
REMARK  221  A    between atoms: _532  and  _534
REMARK  222  A    between atoms: _534  and  _535
REMARK  223  A    between atoms: _534  and  _537
REMARK  224  A    between atoms: _537  and  _538
REMARK  225  A    between atoms: _541  and  _543
REMARK  226  A    between atoms: _543  and  _544
REMARK  227  A    between atoms: _546  and  _548
REMARK  228  A    between atoms: _548  and  _549
REMARK  229  A    between atoms: _548  and  _551
REMARK  230  A    between atoms: _551  and  _552
REMARK  231  A    between atoms: _552  and  _553
REMARK  232  A    between atoms: _553  and  _554
REMARK  233  A    between atoms: _563  and  _565
REMARK  234  A    between atoms: _565  and  _566
REMARK  235  A    between atoms: _565  and  _568
REMARK  236  A    between atoms: _568  and  _569
REMARK                            x       y       z     vdW  Elec       q    Type
REMARK                         _______ _______ _______ _____ _____    ______ ____
ROOT
ATOM      1  O   HOH     1       4.355  29.801  -3.247  0.00  0.00    +0.000 OA
ENDROOT
TORSDOF 0
REMARK  Name = ../refined-set-2016/2cen/2cen_pocket.pdb
REMARK  236 active torsions:
REMARK  status: ('A' for Active; 'I' for Inactive)
REMARK    1  A    between atoms: _1  and  _3
REMARK    2  A    between atoms: _3  and  _4
REMARK    3  A    between atoms: _3  and  _6
REMARK    4  A    between atoms: _6  and  _7
REMARK    5  A    between atoms: _7  and  _8
REMARK    6  A    between atoms: _8  and  _9
REMARK    7  A    between atoms: _18  and  _20
REMARK    8  A    between atoms: _20  and  _21
REMARK    9  A    between atoms: _20  and  _23
REMARK   10  A    between atoms: _23  and  _24
REMARK   11  A    between atoms: _27  and  _29
REMARK   12  A    between atoms: _29  and  _30
REMARK   13  A    between atoms: _29  and  _32
REMARK   14  A    between atoms: _32  and  _33
REMARK   15  A    between atoms: _36  and  _38
REMARK   16  A    between atoms: _38  and  _39
REMARK   17  A    between atoms: _38  and  _41
REMARK   18  A    between atoms: _41  and  _42
REMARK   19  A    between atoms: _45  and  _47
REMARK   20  A    between atoms: _47  and  _48
REMARK   21  A    between atoms: _47  and  _50
REMARK   22  A    between atoms: _50  and  _51
REMARK   23  A    between atoms: _54  and  _56
REMARK   24  A    between atoms: _56  and  _57
REMARK   25  A    between atoms: _56  and  _59
REMARK   26  A    between atoms: _59  and  _60
REMARK   27  A    between atoms: _63  and  _65
REMARK   28  A    between atoms: _65  and  _66
REMARK   29  A    between atoms: _68  and  _70
REMARK   30  A    between atoms: _70  and  _71
REMARK   31  A    between atoms: _74  and  _76
REMARK   32  A    between atoms: _76  and  _77
REMARK   33  A    between atoms: _76  and  _79
REMARK   34  A    between atoms: _79  and  _80
REMARK   35  A    between atoms: _83  and  _85
REMARK   36  A    between atoms: _85  and  _86
REMARK   37  A    between atoms: _85  and  _88
REMARK   38  A    between atoms: _88  and  _89
REMARK   39  A    between atoms: _92  and  _94
REMARK   40  A    between atoms: _94  and  _95
REMARK   41  A    between atoms: _94  and  _97
REMARK   42  A    between atoms: _97  and  _98
REMARK   43  A    between atoms: _101  and  _103
REMARK   44  A    between atoms: _103  and  _104
REMARK   45  A    between atoms: _103  and  _106
REMARK   46  A    between atoms: _109  and  _111
REMARK   47  A    between atoms: _111  and  _112
REMARK   48  A    between atoms: _111  and  _114
REMARK   49  A    between atoms: _114  and  _115
REMARK   50  A    between atoms: _115  and  _116
REMARK   51  A    between atoms: _116  and  _117
REMARK   52  A    between atoms: _117  and  _118
REMARK   53  A    between atoms: _122  and  _124
REMARK   54  A    between atoms: _124  and  _125
REMARK   55  A    between atoms: _124  and  _127
REMARK   56  A    between atoms: _127  and  _128
REMARK   57  A    between atoms: _128  and  _129
REMARK   58  A    between atoms: _131  and  _133
REMARK   59  A    between atoms: _133  and  _134
REMARK   60  A    between atoms: _133  and  _136
REMARK   61  A    between atoms: _136  and  _137
REMARK   62  A    between atoms: _140  and  _142
REMARK   63  A    between atoms: _142  and  _143
REMARK   64  A    between atoms: _145  and  _147
REMARK   65  A    between atoms: _147  and  _148
REMARK   66  A    between atoms: _150  and  _152
REMARK   67  A    between atoms: _152  and  _153
REMARK   68  A    between atoms: _152  and  _155
REMARK   69  A    between atoms: _155  and  _156
REMARK   70  A    between atoms: _159  and  _161
REMARK   71  A    between atoms: _161  and  _162
REMARK   72  A    between atoms: _164  and  _166
REMARK   73  A    between atoms: _166  and  _167
REMARK   74  A    between atoms: _169  and  _171
REMARK   75  A    between atoms: _171  and  _172
REMARK   76  A    between atoms: _171  and  _174
REMARK   77  A    between atoms: _174  and  _175
REMARK   78  A    between atoms: _181  and  _183
REMARK   79  A    between atoms: _183  and  _184
REMARK   80  A    between atoms: _183  and  _186
REMARK   81  A    between atoms: _186  and  _187
REMARK   82  A    between atoms: _190  and  _192
REMARK   83  A    between atoms: _192  and  _193
REMARK   84  A    between atoms: _192  and  _195
REMARK   85  A    between atoms: _198  and  _200
REMARK   86  A    between atoms: _200  and  _201
REMARK   87  A    between atoms: _200  and  _203
REMARK   88  A    between atoms: _203  and  _204
REMARK   89  A    between atoms: _207  and  _209
REMARK   90  A    between atoms: _209  and  _210
REMARK   91  A    between atoms: _209  and  _212
REMARK   92  A    between atoms: _212  and  _213
REMARK   93  A    between atoms: _217  and  _218
REMARK   94  A    between atoms: _223  and  _225
REMARK   95  A    between atoms: _225  and  _226
REMARK   96  A    between atoms: _225  and  _228
REMARK   97  A    between atoms: _231  and  _233
REMARK   98  A    between atoms: _233  and  _234
REMARK   99  A    between atoms: _233  and  _236
REMARK  100  A    between atoms: _236  and  _237
REMARK  101  A    between atoms: _242  and  _244
REMARK  102  A    between atoms: _244  and  _245
REMARK  103  A    between atoms: _244  and  _247
REMARK  104  A    between atoms: _247  and  _248
REMARK  105  A    between atoms: _251  and  _253
REMARK  106  A    between atoms: _253  and  _254
REMARK  107  A    between atoms: _253  and  _256
REMARK  108  A    between atoms: _256  and  _257
REMARK  109  A    between atoms: _260  and  _262
REMARK  110  A    between atoms: _262  and  _263
REMARK  111  A    between atoms: _265  and  _267
REMARK  112  A    between atoms: _267  and  _268
REMARK  113  A    between atoms: _267  and  _270
REMARK  114  A    between atoms: _270  and  _271
REMARK  115  A    between atoms: _271  and  _272
REMARK  116  A    between atoms: _272  and  _273
REMARK  117  A    between atoms: _282  and  _284
REMARK  118  A    between atoms: _284  and  _285
REMARK  119  A    between atoms: _284  and  _287
REMARK  120  A    between atoms: _287  and  _288
REMARK  121  A    between atoms: _288  and  _289
REMARK  122  A    between atoms: _289  and  _290
REMARK  123  A    between atoms: _299  and  _301
REMARK  124  A    between atoms: _301  and  _302
REMARK  125  A    between atoms: _301  and  _304
REMARK  126  A    between atoms: _304  and  _305
REMARK  127  A    between atoms: _308  and  _310
REMARK  128  A    between atoms: _310  and  _311
REMARK  129  A    between atoms: _310  and  _313
REMARK  130  A    between atoms: _313  and  _314
REMARK  131  A    between atoms: _317  and  _319
REMARK  132  A    between atoms: _319  and  _320
REMARK  133  A    between atoms: _319  and  _322
REMARK  134  A    between atoms: _322  and  _323
REMARK  135  A    between atoms: _326  and  _328
REMARK  136  A    between atoms: _328  and  _329
REMARK  137  A    between atoms: _328  and  _331
REMARK  138  A    between atoms: _331  and  _332
REMARK  139  A    between atoms: _335  and  _337
REMARK  140  A    between atoms: _337  and  _338
REMARK  141  A    between atoms: _340  and  _342
REMARK  142  A    between atoms: _342  and  _343
REMARK  143  A    between atoms: _346  and  _348
REMARK  144  A    between atoms: _348  and  _349
REMARK  145  A    between atoms: _348  and  _351
REMARK  146  A    between atoms: _351  and  _352
REMARK  147  A    between atoms: _355  and  _357
REMARK  148  A    between atoms: _357  and  _358
REMARK  149  A    between atoms: _357  and  _360
REMARK  150  A    between atoms: _360  and  _361
REMARK  151  A    between atoms: _364  and  _366
REMARK  152  A    between atoms: _366  and  _367
REMARK  153  A    between atoms: _366  and  _369
REMARK  154  A    between atoms: _369  and  _370
REMARK  155  A    between atoms: _373  and  _375
REMARK  156  A    between atoms: _375  and  _376
REMARK  157  A    between atoms: _375  and  _378
REMARK  158  A    between atoms: _381  and  _383
REMARK  159  A    between atoms: _383  and  _384
REMARK  160  A    between atoms: _383  and  _386
REMARK  161  A    between atoms: _386  and  _387
REMARK  162  A    between atoms: _390  and  _392
REMARK  163  A    between atoms: _392  and  _393
REMARK  164  A    between atoms: _392  and  _395
REMARK  165  A    between atoms: _395  and  _396
REMARK  166  A    between atoms: _396  and  _397
REMARK  167  A    between atoms: _397  and  _398
REMARK  168  A    between atoms: _398  and  _399
REMARK  169  A    between atoms: _403  and  _405
REMARK  170  A    between atoms: _405  and  _406
REMARK  171  A    between atoms: _405  and  _408
REMARK  172  A    between atoms: _408  and  _409
REMARK  173  A    between atoms: _409  and  _410
REMARK  174  A    between atoms: _412  and  _414
REMARK  175  A    between atoms: _414  and  _415
REMARK  176  A    between atoms: _414  and  _417
REMARK  177  A    between atoms: _417  and  _418
REMARK  178  A    between atoms: _421  and  _423
REMARK  179  A    between atoms: _423  and  _424
REMARK  180  A    between atoms: _426  and  _428
REMARK  181  A    between atoms: _428  and  _429
REMARK  182  A    between atoms: _431  and  _433
REMARK  183  A    between atoms: _433  and  _434
REMARK  184  A    between atoms: _433  and  _436
REMARK  185  A    between atoms: _436  and  _437
REMARK  186  A    between atoms: _440  and  _442
REMARK  187  A    between atoms: _442  and  _443
REMARK  188  A    between atoms: _445  and  _447
REMARK  189  A    between atoms: _447  and  _448
REMARK  190  A    between atoms: _450  and  _452
REMARK  191  A    between atoms: _452  and  _453
REMARK  192  A    between atoms: _452  and  _455
REMARK  193  A    between atoms: _455  and  _456
REMARK  194  A    between atoms: _462  and  _464
REMARK  195  A    between atoms: _464  and  _465
REMARK  196  A    between atoms: _464  and  _467
REMARK  197  A    between atoms: _467  and  _468
REMARK  198  A    between atoms: _471  and  _473
REMARK  199  A    between atoms: _473  and  _474
REMARK  200  A    between atoms: _473  and  _476
REMARK  201  A    between atoms: _479  and  _481
REMARK  202  A    between atoms: _481  and  _482
REMARK  203  A    between atoms: _481  and  _484
REMARK  204  A    between atoms: _484  and  _485
REMARK  205  A    between atoms: _488  and  _490
REMARK  206  A    between atoms: _490  and  _491
REMARK  207  A    between atoms: _490  and  _493
REMARK  208  A    between atoms: _493  and  _494
REMARK  209  A    between atoms: _498  and  _499
REMARK  210  A    between atoms: _504  and  _506
REMARK  211  A    between atoms: _506  and  _507
REMARK  212  A    between atoms: _506  and  _509
REMARK  213  A    between atoms: _512  and  _514
REMARK  214  A    between atoms: _514  and  _515
REMARK  215  A    between atoms: _514  and  _517
REMARK  216  A    between atoms: _517  and  _518
REMARK  217  A    between atoms: _523  and  _525
REMARK  218  A    between atoms: _525  and  _526
REMARK  219  A    between atoms: _525  and  _528
REMARK  220  A    between atoms: _528  and  _529
REMARK  221  A    between atoms: _532  and  _534
REMARK  222  A    between atoms: _534  and  _535
REMARK  223  A    between atoms: _534  and  _537
REMARK  224  A    between atoms: _537  and  _538
REMARK  225  A    between atoms: _541  and  _543
REMARK  226  A    between atoms: _543  and  _544
REMARK  227  A    between atoms: _546  and  _548
REMARK  228  A    between atoms: _548  and  _549
REMARK  229  A    between atoms: _548  and  _551
REMARK  230  A    between atoms: _551  and  _552
REMARK  231  A    between atoms: _552  and  _553
REMARK  232  A    between atoms: _553  and  _554
REMARK  233  A    between atoms: _563  and  _565
REMARK  234  A    between atoms: _565  and  _566
REMARK  235  A    between atoms: _565  and  _568
REMARK  236  A    between atoms: _568  and  _569
REMARK                            x       y       z     vdW  Elec       q    Type
REMARK                         _______ _______ _______ _____ _____    ______ ____
ROOT
ATOM      1  O   HOH     1       2.036  27.721   2.234  0.00  0.00    +0.000 OA
ENDROOT
TORSDOF 0
REMARK  Name = ../refined-set-2016/2cen/2cen_pocket.pdb
REMARK  236 active torsions:
REMARK  status: ('A' for Active; 'I' for Inactive)
REMARK    1  A    between atoms: _1  and  _3
REMARK    2  A    between atoms: _3  and  _4
REMARK    3  A    between atoms: _3  and  _6
REMARK    4  A    between atoms: _6  and  _7
REMARK    5  A    between atoms: _7  and  _8
REMARK    6  A    between atoms: _8  and  _9
REMARK    7  A    between atoms: _18  and  _20
REMARK    8  A    between atoms: _20  and  _21
REMARK    9  A    between atoms: _20  and  _23
REMARK   10  A    between atoms: _23  and  _24
REMARK   11  A    between atoms: _27  and  _29
REMARK   12  A    between atoms: _29  and  _30
REMARK   13  A    between atoms: _29  and  _32
REMARK   14  A    between atoms: _32  and  _33
REMARK   15  A    between atoms: _36  and  _38
REMARK   16  A    between atoms: _38  and  _39
REMARK   17  A    between atoms: _38  and  _41
REMARK   18  A    between atoms: _41  and  _42
REMARK   19  A    between atoms: _45  and  _47
REMARK   20  A    between atoms: _47  and  _48
REMARK   21  A    between atoms: _47  and  _50
REMARK   22  A    between atoms: _50  and  _51
REMARK   23  A    between atoms: _54  and  _56
REMARK   24  A    between atoms: _56  and  _57
REMARK   25  A    between atoms: _56  and  _59
REMARK   26  A    between atoms: _59  and  _60
REMARK   27  A    between atoms: _63  and  _65
REMARK   28  A    between atoms: _65  and  _66
REMARK   29  A    between atoms: _68  and  _70
REMARK   30  A    between atoms: _70  and  _71
REMARK   31  A    between atoms: _74  and  _76
REMARK   32  A    between atoms: _76  and  _77
REMARK   33  A    between atoms: _76  and  _79
REMARK   34  A    between atoms: _79  and  _80
REMARK   35  A    between atoms: _83  and  _85
REMARK   36  A    between atoms: _85  and  _86
REMARK   37  A    between atoms: _85  and  _88
REMARK   38  A    between atoms: _88  and  _89
REMARK   39  A    between atoms: _92  and  _94
REMARK   40  A    between atoms: _94  and  _95
REMARK   41  A    between atoms: _94  and  _97
REMARK   42  A    between atoms: _97  and  _98
REMARK   43  A    between atoms: _101  and  _103
REMARK   44  A    between atoms: _103  and  _104
REMARK   45  A    between atoms: _103  and  _106
REMARK   46  A    between atoms: _109  and  _111
REMARK   47  A    between atoms: _111  and  _112
REMARK   48  A    between atoms: _111  and  _114
REMARK   49  A    between atoms: _114  and  _115
REMARK   50  A    between atoms: _115  and  _116
REMARK   51  A    between atoms: _116  and  _117
REMARK   52  A    between atoms: _117  and  _118
REMARK   53  A    between atoms: _122  and  _124
REMARK   54  A    between atoms: _124  and  _125
REMARK   55  A    between atoms: _124  and  _127
REMARK   56  A    between atoms: _127  and  _128
REMARK   57  A    between atoms: _128  and  _129
REMARK   58  A    between atoms: _131  and  _133
REMARK   59  A    between atoms: _133  and  _134
REMARK   60  A    between atoms: _133  and  _136
REMARK   61  A    between atoms: _136  and  _137
REMARK   62  A    between atoms: _140  and  _142
REMARK   63  A    between atoms: _142  and  _143
REMARK   64  A    between atoms: _145  and  _147
REMARK   65  A    between atoms: _147  and  _148
REMARK   66  A    between atoms: _150  and  _152
REMARK   67  A    between atoms: _152  and  _153
REMARK   68  A    between atoms: _152  and  _155
REMARK   69  A    between atoms: _155  and  _156
REMARK   70  A    between atoms: _159  and  _161
REMARK   71  A    between atoms: _161  and  _162
REMARK   72  A    between atoms: _164  and  _166
REMARK   73  A    between atoms: _166  and  _167
REMARK   74  A    between atoms: _169  and  _171
REMARK   75  A    between atoms: _171  and  _172
REMARK   76  A    between atoms: _171  and  _174
REMARK   77  A    between atoms: _174  and  _175
REMARK   78  A    between atoms: _181  and  _183
REMARK   79  A    between atoms: _183  and  _184
REMARK   80  A    between atoms: _183  and  _186
REMARK   81  A    between atoms: _186  and  _187
REMARK   82  A    between atoms: _190  and  _192
REMARK   83  A    between atoms: _192  and  _193
REMARK   84  A    between atoms: _192  and  _195
REMARK   85  A    between atoms: _198  and  _200
REMARK   86  A    between atoms: _200  and  _201
REMARK   87  A    between atoms: _200  and  _203
REMARK   88  A    between atoms: _203  and  _204
REMARK   89  A    between atoms: _207  and  _209
REMARK   90  A    between atoms: _209  and  _210
REMARK   91  A    between atoms: _209  and  _212
REMARK   92  A    between atoms: _212  and  _213
REMARK   93  A    between atoms: _217  and  _218
REMARK   94  A    between atoms: _223  and  _225
REMARK   95  A    between atoms: _225  and  _226
REMARK   96  A    between atoms: _225  and  _228
REMARK   97  A    between atoms: _231  and  _233
REMARK   98  A    between atoms: _233  and  _234
REMARK   99  A    between atoms: _233  and  _236
REMARK  100  A    between atoms: _236  and  _237
REMARK  101  A    between atoms: _242  and  _244
REMARK  102  A    between atoms: _244  and  _245
REMARK  103  A    between atoms: _244  and  _247
REMARK  104  A    between atoms: _247  and  _248
REMARK  105  A    between atoms: _251  and  _253
REMARK  106  A    between atoms: _253  and  _254
REMARK  107  A    between atoms: _253  and  _256
REMARK  108  A    between atoms: _256  and  _257
REMARK  109  A    between atoms: _260  and  _262
REMARK  110  A    between atoms: _262  and  _263
REMARK  111  A    between atoms: _265  and  _267
REMARK  112  A    between atoms: _267  and  _268
REMARK  113  A    between atoms: _267  and  _270
REMARK  114  A    between atoms: _270  and  _271
REMARK  115  A    between atoms: _271  and  _272
REMARK  116  A    between atoms: _272  and  _273
REMARK  117  A    between atoms: _282  and  _284
REMARK  118  A    between atoms: _284  and  _285
REMARK  119  A    between atoms: _284  and  _287
REMARK  120  A    between atoms: _287  and  _288
REMARK  121  A    between atoms: _288  and  _289
REMARK  122  A    between atoms: _289  and  _290
REMARK  123  A    between atoms: _299  and  _301
REMARK  124  A    between atoms: _301  and  _302
REMARK  125  A    between atoms: _301  and  _304
REMARK  126  A    between atoms: _304  and  _305
REMARK  127  A    between atoms: _308  and  _310
REMARK  128  A    between atoms: _310  and  _311
REMARK  129  A    between atoms: _310  and  _313
REMARK  130  A    between atoms: _313  and  _314
REMARK  131  A    between atoms: _317  and  _319
REMARK  132  A    between atoms: _319  and  _320
REMARK  133  A    between atoms: _319  and  _322
REMARK  134  A    between atoms: _322  and  _323
REMARK  135  A    between atoms: _326  and  _328
REMARK  136  A    between atoms: _328  and  _329
REMARK  137  A    between atoms: _328  and  _331
REMARK  138  A    between atoms: _331  and  _332
REMARK  139  A    between atoms: _335  and  _337
REMARK  140  A    between atoms: _337  and  _338
REMARK  141  A    between atoms: _340  and  _342
REMARK  142  A    between atoms: _342  and  _343
REMARK  143  A    between atoms: _346  and  _348
REMARK  144  A    between atoms: _348  and  _349
REMARK  145  A    between atoms: _348  and  _351
REMARK  146  A    between atoms: _351  and  _352
REMARK  147  A    between atoms: _355  and  _357
REMARK  148  A    between atoms: _357  and  _358
REMARK  149  A    between atoms: _357  and  _360
REMARK  150  A    between atoms: _360  and  _361
REMARK  151  A    between atoms: _364  and  _366
REMARK  152  A    between atoms: _366  and  _367
REMARK  153  A    between atoms: _366  and  _369
REMARK  154  A    between atoms: _369  and  _370
REMARK  155  A    between atoms: _373  and  _375
REMARK  156  A    between atoms: _375  and  _376
REMARK  157  A    between atoms: _375  and  _378
REMARK  158  A    between atoms: _381  and  _383
REMARK  159  A    between atoms: _383  and  _384
REMARK  160  A    between atoms: _383  and  _386
REMARK  161  A    between atoms: _386  and  _387
REMARK  162  A    between atoms: _390  and  _392
REMARK  163  A    between atoms: _392  and  _393
REMARK  164  A    between atoms: _392  and  _395
REMARK  165  A    between atoms: _395  and  _396
REMARK  166  A    between atoms: _396  and  _397
REMARK  167  A    between atoms: _397  and  _398
REMARK  168  A    between atoms: _398  and  _399
REMARK  169  A    between atoms: _403  and  _405
REMARK  170  A    between atoms: _405  and  _406
REMARK  171  A    between atoms: _405  and  _408
REMARK  172  A    between atoms: _408  and  _409
REMARK  173  A    between atoms: _409  and  _410
REMARK  174  A    between atoms: _412  and  _414
REMARK  175  A    between atoms: _414  and  _415
REMARK  176  A    between atoms: _414  and  _417
REMARK  177  A    between atoms: _417  and  _418
REMARK  178  A    between atoms: _421  and  _423
REMARK  179  A    between atoms: _423  and  _424
REMARK  180  A    between atoms: _426  and  _428
REMARK  181  A    between atoms: _428  and  _429
REMARK  182  A    between atoms: _431  and  _433
REMARK  183  A    between atoms: _433  and  _434
REMARK  184  A    between atoms: _433  and  _436
REMARK  185  A    between atoms: _436  and  _437
REMARK  186  A    between atoms: _440  and  _442
REMARK  187  A    between atoms: _442  and  _443
REMARK  188  A    between atoms: _445  and  _447
REMARK  189  A    between atoms: _447  and  _448
REMARK  190  A    between atoms: _450  and  _452
REMARK  191  A    between atoms: _452  and  _453
REMARK  192  A    between atoms: _452  and  _455
REMARK  193  A    between atoms: _455  and  _456
REMARK  194  A    between atoms: _462  and  _464
REMARK  195  A    between atoms: _464  and  _465
REMARK  196  A    between atoms: _464  and  _467
REMARK  197  A    between atoms: _467  and  _468
REMARK  198  A    between atoms: _471  and  _473
REMARK  199  A    between atoms: _473  and  _474
REMARK  200  A    between atoms: _473  and  _476
REMARK  201  A    between atoms: _479  and  _481
REMARK  202  A    between atoms: _481  and  _482
REMARK  203  A    between atoms: _481  and  _484
REMARK  204  A    between atoms: _484  and  _485
REMARK  205  A    between atoms: _488  and  _490
REMARK  206  A    between atoms: _490  and  _491
REMARK  207  A    between atoms: _490  and  _493
REMARK  208  A    between atoms: _493  and  _494
REMARK  209  A    between atoms: _498  and  _499
REMARK  210  A    between atoms: _504  and  _506
REMARK  211  A    between atoms: _506  and  _507
REMARK  212  A    between atoms: _506  and  _509
REMARK  213  A    between atoms: _512  and  _514
REMARK  214  A    between atoms: _514  and  _515
REMARK  215  A    between atoms: _514  and  _517
REMARK  216  A    between atoms: _517  and  _518
REMARK  217  A    between atoms: _523  and  _525
REMARK  218  A    between atoms: _525  and  _526
REMARK  219  A    between atoms: _525  and  _528
REMARK  220  A    between atoms: _528  and  _529
REMARK  221  A    between atoms: _532  and  _534
REMARK  222  A    between atoms: _534  and  _535
REMARK  223  A    between atoms: _534  and  _537
REMARK  224  A    between atoms: _537  and  _538
REMARK  225  A    between atoms: _541  and  _543
REMARK  226  A    between atoms: _543  and  _544
REMARK  227  A    between atoms: _546  and  _548
REMARK  228  A    between atoms: _548  and  _549
REMARK  229  A    between atoms: _548  and  _551
REMARK  230  A    between atoms: _551  and  _552
REMARK  231  A    between atoms: _552  and  _553
REMARK  232  A    between atoms: _553  and  _554
REMARK  233  A    between atoms: _563  and  _565
REMARK  234  A    between atoms: _565  and  _566
REMARK  235  A    between atoms: _565  and  _568
REMARK  236  A    between atoms: _568  and  _569
REMARK                            x       y       z     vdW  Elec       q    Type
REMARK                         _______ _______ _______ _____ _____    ______ ____
ROOT
ATOM      1  O   HOH     1      21.891  23.757   4.765  0.00  0.00    +0.000 OA
ENDROOT
TORSDOF 0
REMARK  Name = ../refined-set-2016/2cen/2cen_pocket.pdb
REMARK  236 active torsions:
REMARK  status: ('A' for Active; 'I' for Inactive)
REMARK    1  A    between atoms: _1  and  _3
REMARK    2  A    between atoms: _3  and  _4
REMARK    3  A    between atoms: _3  and  _6
REMARK    4  A    between atoms: _6  and  _7
REMARK    5  A    between atoms: _7  and  _8
REMARK    6  A    between atoms: _8  and  _9
REMARK    7  A    between atoms: _18  and  _20
REMARK    8  A    between atoms: _20  and  _21
REMARK    9  A    between atoms: _20  and  _23
REMARK   10  A    between atoms: _23  and  _24
REMARK   11  A    between atoms: _27  and  _29
REMARK   12  A    between atoms: _29  and  _30
REMARK   13  A    between atoms: _29  and  _32
REMARK   14  A    between atoms: _32  and  _33
REMARK   15  A    between atoms: _36  and  _38
REMARK   16  A    between atoms: _38  and  _39
REMARK   17  A    between atoms: _38  and  _41
REMARK   18  A    between atoms: _41  and  _42
REMARK   19  A    between atoms: _45  and  _47
REMARK   20  A    between atoms: _47  and  _48
REMARK   21  A    between atoms: _47  and  _50
REMARK   22  A    between atoms: _50  and  _51
REMARK   23  A    between atoms: _54  and  _56
REMARK   24  A    between atoms: _56  and  _57
REMARK   25  A    between atoms: _56  and  _59
REMARK   26  A    between atoms: _59  and  _60
REMARK   27  A    between atoms: _63  and  _65
REMARK   28  A    between atoms: _65  and  _66
REMARK   29  A    between atoms: _68  and  _70
REMARK   30  A    between atoms: _70  and  _71
REMARK   31  A    between atoms: _74  and  _76
REMARK   32  A    between atoms: _76  and  _77
REMARK   33  A    between atoms: _76  and  _79
REMARK   34  A    between atoms: _79  and  _80
REMARK   35  A    between atoms: _83  and  _85
REMARK   36  A    between atoms: _85  and  _86
REMARK   37  A    between atoms: _85  and  _88
REMARK   38  A    between atoms: _88  and  _89
REMARK   39  A    between atoms: _92  and  _94
REMARK   40  A    between atoms: _94  and  _95
REMARK   41  A    between atoms: _94  and  _97
REMARK   42  A    between atoms: _97  and  _98
REMARK   43  A    between atoms: _101  and  _103
REMARK   44  A    between atoms: _103  and  _104
REMARK   45  A    between atoms: _103  and  _106
REMARK   46  A    between atoms: _109  and  _111
REMARK   47  A    between atoms: _111  and  _112
REMARK   48  A    between atoms: _111  and  _114
REMARK   49  A    between atoms: _114  and  _115
REMARK   50  A    between atoms: _115  and  _116
REMARK   51  A    between atoms: _116  and  _117
REMARK   52  A    between atoms: _117  and  _118
REMARK   53  A    between atoms: _122  and  _124
REMARK   54  A    between atoms: _124  and  _125
REMARK   55  A    between atoms: _124  and  _127
REMARK   56  A    between atoms: _127  and  _128
REMARK   57  A    between atoms: _128  and  _129
REMARK   58  A    between atoms: _131  and  _133
REMARK   59  A    between atoms: _133  and  _134
REMARK   60  A    between atoms: _133  and  _136
REMARK   61  A    between atoms: _136  and  _137
REMARK   62  A    between atoms: _140  and  _142
REMARK   63  A    between atoms: _142  and  _143
REMARK   64  A    between atoms: _145  and  _147
REMARK   65  A    between atoms: _147  and  _148
REMARK   66  A    between atoms: _150  and  _152
REMARK   67  A    between atoms: _152  and  _153
REMARK   68  A    between atoms: _152  and  _155
REMARK   69  A    between atoms: _155  and  _156
REMARK   70  A    between atoms: _159  and  _161
REMARK   71  A    between atoms: _161  and  _162
REMARK   72  A    between atoms: _164  and  _166
REMARK   73  A    between atoms: _166  and  _167
REMARK   74  A    between atoms: _169  and  _171
REMARK   75  A    between atoms: _171  and  _172
REMARK   76  A    between atoms: _171  and  _174
REMARK   77  A    between atoms: _174  and  _175
REMARK   78  A    between atoms: _181  and  _183
REMARK   79  A    between atoms: _183  and  _184
REMARK   80  A    between atoms: _183  and  _186
REMARK   81  A    between atoms: _186  and  _187
REMARK   82  A    between atoms: _190  and  _192
REMARK   83  A    between atoms: _192  and  _193
REMARK   84  A    between atoms: _192  and  _195
REMARK   85  A    between atoms: _198  and  _200
REMARK   86  A    between atoms: _200  and  _201
REMARK   87  A    between atoms: _200  and  _203
REMARK   88  A    between atoms: _203  and  _204
REMARK   89  A    between atoms: _207  and  _209
REMARK   90  A    between atoms: _209  and  _210
REMARK   91  A    between atoms: _209  and  _212
REMARK   92  A    between atoms: _212  and  _213
REMARK   93  A    between atoms: _217  and  _218
REMARK   94  A    between atoms: _223  and  _225
REMARK   95  A    between atoms: _225  and  _226
REMARK   96  A    between atoms: _225  and  _228
REMARK   97  A    between atoms: _231  and  _233
REMARK   98  A    between atoms: _233  and  _234
REMARK   99  A    between atoms: _233  and  _236
REMARK  100  A    between atoms: _236  and  _237
REMARK  101  A    between atoms: _242  and  _244
REMARK  102  A    between atoms: _244  and  _245
REMARK  103  A    between atoms: _244  and  _247
REMARK  104  A    between atoms: _247  and  _248
REMARK  105  A    between atoms: _251  and  _253
REMARK  106  A    between atoms: _253  and  _254
REMARK  107  A    between atoms: _253  and  _256
REMARK  108  A    between atoms: _256  and  _257
REMARK  109  A    between atoms: _260  and  _262
REMARK  110  A    between atoms: _262  and  _263
REMARK  111  A    between atoms: _265  and  _267
REMARK  112  A    between atoms: _267  and  _268
REMARK  113  A    between atoms: _267  and  _270
REMARK  114  A    between atoms: _270  and  _271
REMARK  115  A    between atoms: _271  and  _272
REMARK  116  A    between atoms: _272  and  _273
REMARK  117  A    between atoms: _282  and  _284
REMARK  118  A    between atoms: _284  and  _285
REMARK  119  A    between atoms: _284  and  _287
REMARK  120  A    between atoms: _287  and  _288
REMARK  121  A    between atoms: _288  and  _289
REMARK  122  A    between atoms: _289  and  _290
REMARK  123  A    between atoms: _299  and  _301
REMARK  124  A    between atoms: _301  and  _302
REMARK  125  A    between atoms: _301  and  _304
REMARK  126  A    between atoms: _304  and  _305
REMARK  127  A    between atoms: _308  and  _310
REMARK  128  A    between atoms: _310  and  _311
REMARK  129  A    between atoms: _310  and  _313
REMARK  130  A    between atoms: _313  and  _314
REMARK  131  A    between atoms: _317  and  _319
REMARK  132  A    between atoms: _319  and  _320
REMARK  133  A    between atoms: _319  and  _322
REMARK  134  A    between atoms: _322  and  _323
REMARK  135  A    between atoms: _326  and  _328
REMARK  136  A    between atoms: _328  and  _329
REMARK  137  A    between atoms: _328  and  _331
REMARK  138  A    between atoms: _331  and  _332
REMARK  139  A    between atoms: _335  and  _337
REMARK  140  A    between atoms: _337  and  _338
REMARK  141  A    between atoms: _340  and  _342
REMARK  142  A    between atoms: _342  and  _343
REMARK  143  A    between atoms: _346  and  _348
REMARK  144  A    between atoms: _348  and  _349
REMARK  145  A    between atoms: _348  and  _351
REMARK  146  A    between atoms: _351  and  _352
REMARK  147  A    between atoms: _355  and  _357
REMARK  148  A    between atoms: _357  and  _358
REMARK  149  A    between atoms: _357  and  _360
REMARK  150  A    between atoms: _360  and  _361
REMARK  151  A    between atoms: _364  and  _366
REMARK  152  A    between atoms: _366  and  _367
REMARK  153  A    between atoms: _366  and  _369
REMARK  154  A    between atoms: _369  and  _370
REMARK  155  A    between atoms: _373  and  _375
REMARK  156  A    between atoms: _375  and  _376
REMARK  157  A    between atoms: _375  and  _378
REMARK  158  A    between atoms: _381  and  _383
REMARK  159  A    between atoms: _383  and  _384
REMARK  160  A    between atoms: _383  and  _386
REMARK  161  A    between atoms: _386  and  _387
REMARK  162  A    between atoms: _390  and  _392
REMARK  163  A    between atoms: _392  and  _393
REMARK  164  A    between atoms: _392  and  _395
REMARK  165  A    between atoms: _395  and  _396
REMARK  166  A    between atoms: _396  and  _397
REMARK  167  A    between atoms: _397  and  _398
REMARK  168  A    between atoms: _398  and  _399
REMARK  169  A    between atoms: _403  and  _405
REMARK  170  A    between atoms: _405  and  _406
REMARK  171  A    between atoms: _405  and  _408
REMARK  172  A    between atoms: _408  and  _409
REMARK  173  A    between atoms: _409  and  _410
REMARK  174  A    between atoms: _412  and  _414
REMARK  175  A    between atoms: _414  and  _415
REMARK  176  A    between atoms: _414  and  _417
REMARK  177  A    between atoms: _417  and  _418
REMARK  178  A    between atoms: _421  and  _423
REMARK  179  A    between atoms: _423  and  _424
REMARK  180  A    between atoms: _426  and  _428
REMARK  181  A    between atoms: _428  and  _429
REMARK  182  A    between atoms: _431  and  _433
REMARK  183  A    between atoms: _433  and  _434
REMARK  184  A    between atoms: _433  and  _436
REMARK  185  A    between atoms: _436  and  _437
REMARK  186  A    between atoms: _440  and  _442
REMARK  187  A    between atoms: _442  and  _443
REMARK  188  A    between atoms: _445  and  _447
REMARK  189  A    between atoms: _447  and  _448
REMARK  190  A    between atoms: _450  and  _452
REMARK  191  A    between atoms: _452  and  _453
REMARK  192  A    between atoms: _452  and  _455
REMARK  193  A    between atoms: _455  and  _456
REMARK  194  A    between atoms: _462  and  _464
REMARK  195  A    between atoms: _464  and  _465
REMARK  196  A    between atoms: _464  and  _467
REMARK  197  A    between atoms: _467  and  _468
REMARK  198  A    between atoms: _471  and  _473
REMARK  199  A    between atoms: _473  and  _474
REMARK  200  A    between atoms: _473  and  _476
REMARK  201  A    between atoms: _479  and  _481
REMARK  202  A    between atoms: _481  and  _482
REMARK  203  A    between atoms: _481  and  _484
REMARK  204  A    between atoms: _484  and  _485
REMARK  205  A    between atoms: _488  and  _490
REMARK  206  A    between atoms: _490  and  _491
REMARK  207  A    between atoms: _490  and  _493
REMARK  208  A    between atoms: _493  and  _494
REMARK  209  A    between atoms: _498  and  _499
REMARK  210  A    between atoms: _504  and  _506
REMARK  211  A    between atoms: _506  and  _507
REMARK  212  A    between atoms: _506  and  _509
REMARK  213  A    between atoms: _512  and  _514
REMARK  214  A    between atoms: _514  and  _515
REMARK  215  A    between atoms: _514  and  _517
REMARK  216  A    between atoms: _517  and  _518
REMARK  217  A    between atoms: _523  and  _525
REMARK  218  A    between atoms: _525  and  _526
REMARK  219  A    between atoms: _525  and  _528
REMARK  220  A    between atoms: _528  and  _529
REMARK  221  A    between atoms: _532  and  _534
REMARK  222  A    between atoms: _534  and  _535
REMARK  223  A    between atoms: _534  and  _537
REMARK  224  A    between atoms: _537  and  _538
REMARK  225  A    between atoms: _541  and  _543
REMARK  226  A    between atoms: _543  and  _544
REMARK  227  A    between atoms: _546  and  _548
REMARK  228  A    between atoms: _548  and  _549
REMARK  229  A    between atoms: _548  and  _551
REMARK  230  A    between atoms: _551  and  _552
REMARK  231  A    between atoms: _552  and  _553
REMARK  232  A    between atoms: _553  and  _554
REMARK  233  A    between atoms: _563  and  _565
REMARK  234  A    between atoms: _565  and  _566
REMARK  235  A    between atoms: _565  and  _568
REMARK  236  A    between atoms: _568  and  _569
REMARK                            x       y       z     vdW  Elec       q    Type
REMARK                         _______ _______ _______ _____ _____    ______ ____
ROOT
ATOM      1  O   HOH     1      20.594  21.935   6.461  0.00  0.00    +0.000 OA
ENDROOT
TORSDOF 0
REMARK  Name = ../refined-set-2016/2cen/2cen_pocket.pdb
REMARK  236 active torsions:
REMARK  status: ('A' for Active; 'I' for Inactive)
REMARK    1  A    between atoms: _1  and  _3
REMARK    2  A    between atoms: _3  and  _4
REMARK    3  A    between atoms: _3  and  _6
REMARK    4  A    between atoms: _6  and  _7
REMARK    5  A    between atoms: _7  and  _8
REMARK    6  A    between atoms: _8  and  _9
REMARK    7  A    between atoms: _18  and  _20
REMARK    8  A    between atoms: _20  and  _21
REMARK    9  A    between atoms: _20  and  _23
REMARK   10  A    between atoms: _23  and  _24
REMARK   11  A    between atoms: _27  and  _29
REMARK   12  A    between atoms: _29  and  _30
REMARK   13  A    between atoms: _29  and  _32
REMARK   14  A    between atoms: _32  and  _33
REMARK   15  A    between atoms: _36  and  _38
REMARK   16  A    between atoms: _38  and  _39
REMARK   17  A    between atoms: _38  and  _41
REMARK   18  A    between atoms: _41  and  _42
REMARK   19  A    between atoms: _45  and  _47
REMARK   20  A    between atoms: _47  and  _48
REMARK   21  A    between atoms: _47  and  _50
REMARK   22  A    between atoms: _50  and  _51
REMARK   23  A    between atoms: _54  and  _56
REMARK   24  A    between atoms: _56  and  _57
REMARK   25  A    between atoms: _56  and  _59
REMARK   26  A    between atoms: _59  and  _60
REMARK   27  A    between atoms: _63  and  _65
REMARK   28  A    between atoms: _65  and  _66
REMARK   29  A    between atoms: _68  and  _70
REMARK   30  A    between atoms: _70  and  _71
REMARK   31  A    between atoms: _74  and  _76
REMARK   32  A    between atoms: _76  and  _77
REMARK   33  A    between atoms: _76  and  _79
REMARK   34  A    between atoms: _79  and  _80
REMARK   35  A    between atoms: _83  and  _85
REMARK   36  A    between atoms: _85  and  _86
REMARK   37  A    between atoms: _85  and  _88
REMARK   38  A    between atoms: _88  and  _89
REMARK   39  A    between atoms: _92  and  _94
REMARK   40  A    between atoms: _94  and  _95
REMARK   41  A    between atoms: _94  and  _97
REMARK   42  A    between atoms: _97  and  _98
REMARK   43  A    between atoms: _101  and  _103
REMARK   44  A    between atoms: _103  and  _104
REMARK   45  A    between atoms: _103  and  _106
REMARK   46  A    between atoms: _109  and  _111
REMARK   47  A    between atoms: _111  and  _112
REMARK   48  A    between atoms: _111  and  _114
REMARK   49  A    between atoms: _114  and  _115
REMARK   50  A    between atoms: _115  and  _116
REMARK   51  A    between atoms: _116  and  _117
REMARK   52  A    between atoms: _117  and  _118
REMARK   53  A    between atoms: _122  and  _124
REMARK   54  A    between atoms: _124  and  _125
REMARK   55  A    between atoms: _124  and  _127
REMARK   56  A    between atoms: _127  and  _128
REMARK   57  A    between atoms: _128  and  _129
REMARK   58  A    between atoms: _131  and  _133
REMARK   59  A    between atoms: _133  and  _134
REMARK   60  A    between atoms: _133  and  _136
REMARK   61  A    between atoms: _136  and  _137
REMARK   62  A    between atoms: _140  and  _142
REMARK   63  A    between atoms: _142  and  _143
REMARK   64  A    between atoms: _145  and  _147
REMARK   65  A    between atoms: _147  and  _148
REMARK   66  A    between atoms: _150  and  _152
REMARK   67  A    between atoms: _152  and  _153
REMARK   68  A    between atoms: _152  and  _155
REMARK   69  A    between atoms: _155  and  _156
REMARK   70  A    between atoms: _159  and  _161
REMARK   71  A    between atoms: _161  and  _162
REMARK   72  A    between atoms: _164  and  _166
REMARK   73  A    between atoms: _166  and  _167
REMARK   74  A    between atoms: _169  and  _171
REMARK   75  A    between atoms: _171  and  _172
REMARK   76  A    between atoms: _171  and  _174
REMARK   77  A    between atoms: _174  and  _175
REMARK   78  A    between atoms: _181  and  _183
REMARK   79  A    between atoms: _183  and  _184
REMARK   80  A    between atoms: _183  and  _186
REMARK   81  A    between atoms: _186  and  _187
REMARK   82  A    between atoms: _190  and  _192
REMARK   83  A    between atoms: _192  and  _193
REMARK   84  A    between atoms: _192  and  _195
REMARK   85  A    between atoms: _198  and  _200
REMARK   86  A    between atoms: _200  and  _201
REMARK   87  A    between atoms: _200  and  _203
REMARK   88  A    between atoms: _203  and  _204
REMARK   89  A    between atoms: _207  and  _209
REMARK   90  A    between atoms: _209  and  _210
REMARK   91  A    between atoms: _209  and  _212
REMARK   92  A    between atoms: _212  and  _213
REMARK   93  A    between atoms: _217  and  _218
REMARK   94  A    between atoms: _223  and  _225
REMARK   95  A    between atoms: _225  and  _226
REMARK   96  A    between atoms: _225  and  _228
REMARK   97  A    between atoms: _231  and  _233
REMARK   98  A    between atoms: _233  and  _234
REMARK   99  A    between atoms: _233  and  _236
REMARK  100  A    between atoms: _236  and  _237
REMARK  101  A    between atoms: _242  and  _244
REMARK  102  A    between atoms: _244  and  _245
REMARK  103  A    between atoms: _244  and  _247
REMARK  104  A    between atoms: _247  and  _248
REMARK  105  A    between atoms: _251  and  _253
REMARK  106  A    between atoms: _253  and  _254
REMARK  107  A    between atoms: _253  and  _256
REMARK  108  A    between atoms: _256  and  _257
REMARK  109  A    between atoms: _260  and  _262
REMARK  110  A    between atoms: _262  and  _263
REMARK  111  A    between atoms: _265  and  _267
REMARK  112  A    between atoms: _267  and  _268
REMARK  113  A    between atoms: _267  and  _270
REMARK  114  A    between atoms: _270  and  _271
REMARK  115  A    between atoms: _271  and  _272
REMARK  116  A    between atoms: _272  and  _273
REMARK  117  A    between atoms: _282  and  _284
REMARK  118  A    between atoms: _284  and  _285
REMARK  119  A    between atoms: _284  and  _287
REMARK  120  A    between atoms: _287  and  _288
REMARK  121  A    between atoms: _288  and  _289
REMARK  122  A    between atoms: _289  and  _290
REMARK  123  A    between atoms: _299  and  _301
REMARK  124  A    between atoms: _301  and  _302
REMARK  125  A    between atoms: _301  and  _304
REMARK  126  A    between atoms: _304  and  _305
REMARK  127  A    between atoms: _308  and  _310
REMARK  128  A    between atoms: _310  and  _311
REMARK  129  A    between atoms: _310  and  _313
REMARK  130  A    between atoms: _313  and  _314
REMARK  131  A    between atoms: _317  and  _319
REMARK  132  A    between atoms: _319  and  _320
REMARK  133  A    between atoms: _319  and  _322
REMARK  134  A    between atoms: _322  and  _323
REMARK  135  A    between atoms: _326  and  _328
REMARK  136  A    between atoms: _328  and  _329
REMARK  137  A    between atoms: _328  and  _331
REMARK  138  A    between atoms: _331  and  _332
REMARK  139  A    between atoms: _335  and  _337
REMARK  140  A    between atoms: _337  and  _338
REMARK  141  A    between atoms: _340  and  _342
REMARK  142  A    between atoms: _342  and  _343
REMARK  143  A    between atoms: _346  and  _348
REMARK  144  A    between atoms: _348  and  _349
REMARK  145  A    between atoms: _348  and  _351
REMARK  146  A    between atoms: _351  and  _352
REMARK  147  A    between atoms: _355  and  _357
REMARK  148  A    between atoms: _357  and  _358
REMARK  149  A    between atoms: _357  and  _360
REMARK  150  A    between atoms: _360  and  _361
REMARK  151  A    between atoms: _364  and  _366
REMARK  152  A    between atoms: _366  and  _367
REMARK  153  A    between atoms: _366  and  _369
REMARK  154  A    between atoms: _369  and  _370
REMARK  155  A    between atoms: _373  and  _375
REMARK  156  A    between atoms: _375  and  _376
REMARK  157  A    between atoms: _375  and  _378
REMARK  158  A    between atoms: _381  and  _383
REMARK  159  A    between atoms: _383  and  _384
REMARK  160  A    between atoms: _383  and  _386
REMARK  161  A    between atoms: _386  and  _387
REMARK  162  A    between atoms: _390  and  _392
REMARK  163  A    between atoms: _392  and  _393
REMARK  164  A    between atoms: _392  and  _395
REMARK  165  A    between atoms: _395  and  _396
REMARK  166  A    between atoms: _396  and  _397
REMARK  167  A    between atoms: _397  and  _398
REMARK  168  A    between atoms: _398  and  _399
REMARK  169  A    between atoms: _403  and  _405
REMARK  170  A    between atoms: _405  and  _406
REMARK  171  A    between atoms: _405  and  _408
REMARK  172  A    between atoms: _408  and  _409
REMARK  173  A    between atoms: _409  and  _410
REMARK  174  A    between atoms: _412  and  _414
REMARK  175  A    between atoms: _414  and  _415
REMARK  176  A    between atoms: _414  and  _417
REMARK  177  A    between atoms: _417  and  _418
REMARK  178  A    between atoms: _421  and  _423
REMARK  179  A    between atoms: _423  and  _424
REMARK  180  A    between atoms: _426  and  _428
REMARK  181  A    between atoms: _428  and  _429
REMARK  182  A    between atoms: _431  and  _433
REMARK  183  A    between atoms: _433  and  _434
REMARK  184  A    between atoms: _433  and  _436
REMARK  185  A    between atoms: _436  and  _437
REMARK  186  A    between atoms: _440  and  _442
REMARK  187  A    between atoms: _442  and  _443
REMARK  188  A    between atoms: _445  and  _447
REMARK  189  A    between atoms: _447  and  _448
REMARK  190  A    between atoms: _450  and  _452
REMARK  191  A    between atoms: _452  and  _453
REMARK  192  A    between atoms: _452  and  _455
REMARK  193  A    between atoms: _455  and  _456
REMARK  194  A    between atoms: _462  and  _464
REMARK  195  A    between atoms: _464  and  _465
REMARK  196  A    between atoms: _464  and  _467
REMARK  197  A    between atoms: _467  and  _468
REMARK  198  A    between atoms: _471  and  _473
REMARK  199  A    between atoms: _473  and  _474
REMARK  200  A    between atoms: _473  and  _476
REMARK  201  A    between atoms: _479  and  _481
REMARK  202  A    between atoms: _481  and  _482
REMARK  203  A    between atoms: _481  and  _484
REMARK  204  A    between atoms: _484  and  _485
REMARK  205  A    between atoms: _488  and  _490
REMARK  206  A    between atoms: _490  and  _491
REMARK  207  A    between atoms: _490  and  _493
REMARK  208  A    between atoms: _493  and  _494
REMARK  209  A    between atoms: _498  and  _499
REMARK  210  A    between atoms: _504  and  _506
REMARK  211  A    between atoms: _506  and  _507
REMARK  212  A    between atoms: _506  and  _509
REMARK  213  A    between atoms: _512  and  _514
REMARK  214  A    between atoms: _514  and  _515
REMARK  215  A    between atoms: _514  and  _517
REMARK  216  A    between atoms: _517  and  _518
REMARK  217  A    between atoms: _523  and  _525
REMARK  218  A    between atoms: _525  and  _526
REMARK  219  A    between atoms: _525  and  _528
REMARK  220  A    between atoms: _528  and  _529
REMARK  221  A    between atoms: _532  and  _534
REMARK  222  A    between atoms: _534  and  _535
REMARK  223  A    between atoms: _534  and  _537
REMARK  224  A    between atoms: _537  and  _538
REMARK  225  A    between atoms: _541  and  _543
REMARK  226  A    between atoms: _543  and  _544
REMARK  227  A    between atoms: _546  and  _548
REMARK  228  A    between atoms: _548  and  _549
REMARK  229  A    between atoms: _548  and  _551
REMARK  230  A    between atoms: _551  and  _552
REMARK  231  A    between atoms: _552  and  _553
REMARK  232  A    between atoms: _553  and  _554
REMARK  233  A    between atoms: _563  and  _565
REMARK  234  A    between atoms: _565  and  _566
REMARK  235  A    between atoms: _565  and  _568
REMARK  236  A    between atoms: _568  and  _569
REMARK                            x       y       z     vdW  Elec       q    Type
REMARK                         _______ _______ _______ _____ _____    ______ ____
ROOT
ATOM      1  O   HOH     1      22.236  15.661   4.936  0.00  0.00    +0.000 OA
ENDROOT
TORSDOF 0
REMARK  Name = ../refined-set-2016/2cen/2cen_pocket.pdb
REMARK  236 active torsions:
REMARK  status: ('A' for Active; 'I' for Inactive)
REMARK    1  A    between atoms: _1  and  _3
REMARK    2  A    between atoms: _3  and  _4
REMARK    3  A    between atoms: _3  and  _6
REMARK    4  A    between atoms: _6  and  _7
REMARK    5  A    between atoms: _7  and  _8
REMARK    6  A    between atoms: _8  and  _9
REMARK    7  A    between atoms: _18  and  _20
REMARK    8  A    between atoms: _20  and  _21
REMARK    9  A    between atoms: _20  and  _23
REMARK   10  A    between atoms: _23  and  _24
REMARK   11  A    between atoms: _27  and  _29
REMARK   12  A    between atoms: _29  and  _30
REMARK   13  A    between atoms: _29  and  _32
REMARK   14  A    between atoms: _32  and  _33
REMARK   15  A    between atoms: _36  and  _38
REMARK   16  A    between atoms: _38  and  _39
REMARK   17  A    between atoms: _38  and  _41
REMARK   18  A    between atoms: _41  and  _42
REMARK   19  A    between atoms: _45  and  _47
REMARK   20  A    between atoms: _47  and  _48
REMARK   21  A    between atoms: _47  and  _50
REMARK   22  A    between atoms: _50  and  _51
REMARK   23  A    between atoms: _54  and  _56
REMARK   24  A    between atoms: _56  and  _57
REMARK   25  A    between atoms: _56  and  _59
REMARK   26  A    between atoms: _59  and  _60
REMARK   27  A    between atoms: _63  and  _65
REMARK   28  A    between atoms: _65  and  _66
REMARK   29  A    between atoms: _68  and  _70
REMARK   30  A    between atoms: _70  and  _71
REMARK   31  A    between atoms: _74  and  _76
REMARK   32  A    between atoms: _76  and  _77
REMARK   33  A    between atoms: _76  and  _79
REMARK   34  A    between atoms: _79  and  _80
REMARK   35  A    between atoms: _83  and  _85
REMARK   36  A    between atoms: _85  and  _86
REMARK   37  A    between atoms: _85  and  _88
REMARK   38  A    between atoms: _88  and  _89
REMARK   39  A    between atoms: _92  and  _94
REMARK   40  A    between atoms: _94  and  _95
REMARK   41  A    between atoms: _94  and  _97
REMARK   42  A    between atoms: _97  and  _98
REMARK   43  A    between atoms: _101  and  _103
REMARK   44  A    between atoms: _103  and  _104
REMARK   45  A    between atoms: _103  and  _106
REMARK   46  A    between atoms: _109  and  _111
REMARK   47  A    between atoms: _111  and  _112
REMARK   48  A    between atoms: _111  and  _114
REMARK   49  A    between atoms: _114  and  _115
REMARK   50  A    between atoms: _115  and  _116
REMARK   51  A    between atoms: _116  and  _117
REMARK   52  A    between atoms: _117  and  _118
REMARK   53  A    between atoms: _122  and  _124
REMARK   54  A    between atoms: _124  and  _125
REMARK   55  A    between atoms: _124  and  _127
REMARK   56  A    between atoms: _127  and  _128
REMARK   57  A    between atoms: _128  and  _129
REMARK   58  A    between atoms: _131  and  _133
REMARK   59  A    between atoms: _133  and  _134
REMARK   60  A    between atoms: _133  and  _136
REMARK   61  A    between atoms: _136  and  _137
REMARK   62  A    between atoms: _140  and  _142
REMARK   63  A    between atoms: _142  and  _143
REMARK   64  A    between atoms: _145  and  _147
REMARK   65  A    between atoms: _147  and  _148
REMARK   66  A    between atoms: _150  and  _152
REMARK   67  A    between atoms: _152  and  _153
REMARK   68  A    between atoms: _152  and  _155
REMARK   69  A    between atoms: _155  and  _156
REMARK   70  A    between atoms: _159  and  _161
REMARK   71  A    between atoms: _161  and  _162
REMARK   72  A    between atoms: _164  and  _166
REMARK   73  A    between atoms: _166  and  _167
REMARK   74  A    between atoms: _169  and  _171
REMARK   75  A    between atoms: _171  and  _172
REMARK   76  A    between atoms: _171  and  _174
REMARK   77  A    between atoms: _174  and  _175
REMARK   78  A    between atoms: _181  and  _183
REMARK   79  A    between atoms: _183  and  _184
REMARK   80  A    between atoms: _183  and  _186
REMARK   81  A    between atoms: _186  and  _187
REMARK   82  A    between atoms: _190  and  _192
REMARK   83  A    between atoms: _192  and  _193
REMARK   84  A    between atoms: _192  and  _195
REMARK   85  A    between atoms: _198  and  _200
REMARK   86  A    between atoms: _200  and  _201
REMARK   87  A    between atoms: _200  and  _203
REMARK   88  A    between atoms: _203  and  _204
REMARK   89  A    between atoms: _207  and  _209
REMARK   90  A    between atoms: _209  and  _210
REMARK   91  A    between atoms: _209  and  _212
REMARK   92  A    between atoms: _212  and  _213
REMARK   93  A    between atoms: _217  and  _218
REMARK   94  A    between atoms: _223  and  _225
REMARK   95  A    between atoms: _225  and  _226
REMARK   96  A    between atoms: _225  and  _228
REMARK   97  A    between atoms: _231  and  _233
REMARK   98  A    between atoms: _233  and  _234
REMARK   99  A    between atoms: _233  and  _236
REMARK  100  A    between atoms: _236  and  _237
REMARK  101  A    between atoms: _242  and  _244
REMARK  102  A    between atoms: _244  and  _245
REMARK  103  A    between atoms: _244  and  _247
REMARK  104  A    between atoms: _247  and  _248
REMARK  105  A    between atoms: _251  and  _253
REMARK  106  A    between atoms: _253  and  _254
REMARK  107  A    between atoms: _253  and  _256
REMARK  108  A    between atoms: _256  and  _257
REMARK  109  A    between atoms: _260  and  _262
REMARK  110  A    between atoms: _262  and  _263
REMARK  111  A    between atoms: _265  and  _267
REMARK  112  A    between atoms: _267  and  _268
REMARK  113  A    between atoms: _267  and  _270
REMARK  114  A    between atoms: _270  and  _271
REMARK  115  A    between atoms: _271  and  _272
REMARK  116  A    between atoms: _272  and  _273
REMARK  117  A    between atoms: _282  and  _284
REMARK  118  A    between atoms: _284  and  _285
REMARK  119  A    between atoms: _284  and  _287
REMARK  120  A    between atoms: _287  and  _288
REMARK  121  A    between atoms: _288  and  _289
REMARK  122  A    between atoms: _289  and  _290
REMARK  123  A    between atoms: _299  and  _301
REMARK  124  A    between atoms: _301  and  _302
REMARK  125  A    between atoms: _301  and  _304
REMARK  126  A    between atoms: _304  and  _305
REMARK  127  A    between atoms: _308  and  _310
REMARK  128  A    between atoms: _310  and  _311
REMARK  129  A    between atoms: _310  and  _313
REMARK  130  A    between atoms: _313  and  _314
REMARK  131  A    between atoms: _317  and  _319
REMARK  132  A    between atoms: _319  and  _320
REMARK  133  A    between atoms: _319  and  _322
REMARK  134  A    between atoms: _322  and  _323
REMARK  135  A    between atoms: _326  and  _328
REMARK  136  A    between atoms: _328  and  _329
REMARK  137  A    between atoms: _328  and  _331
REMARK  138  A    between atoms: _331  and  _332
REMARK  139  A    between atoms: _335  and  _337
REMARK  140  A    between atoms: _337  and  _338
REMARK  141  A    between atoms: _340  and  _342
REMARK  142  A    between atoms: _342  and  _343
REMARK  143  A    between atoms: _346  and  _348
REMARK  144  A    between atoms: _348  and  _349
REMARK  145  A    between atoms: _348  and  _351
REMARK  146  A    between atoms: _351  and  _352
REMARK  147  A    between atoms: _355  and  _357
REMARK  148  A    between atoms: _357  and  _358
REMARK  149  A    between atoms: _357  and  _360
REMARK  150  A    between atoms: _360  and  _361
REMARK  151  A    between atoms: _364  and  _366
REMARK  152  A    between atoms: _366  and  _367
REMARK  153  A    between atoms: _366  and  _369
REMARK  154  A    between atoms: _369  and  _370
REMARK  155  A    between atoms: _373  and  _375
REMARK  156  A    between atoms: _375  and  _376
REMARK  157  A    between atoms: _375  and  _378
REMARK  158  A    between atoms: _381  and  _383
REMARK  159  A    between atoms: _383  and  _384
REMARK  160  A    between atoms: _383  and  _386
REMARK  161  A    between atoms: _386  and  _387
REMARK  162  A    between atoms: _390  and  _392
REMARK  163  A    between atoms: _392  and  _393
REMARK  164  A    between atoms: _392  and  _395
REMARK  165  A    between atoms: _395  and  _396
REMARK  166  A    between atoms: _396  and  _397
REMARK  167  A    between atoms: _397  and  _398
REMARK  168  A    between atoms: _398  and  _399
REMARK  169  A    between atoms: _403  and  _405
REMARK  170  A    between atoms: _405  and  _406
REMARK  171  A    between atoms: _405  and  _408
REMARK  172  A    between atoms: _408  and  _409
REMARK  173  A    between atoms: _409  and  _410
REMARK  174  A    between atoms: _412  and  _414
REMARK  175  A    between atoms: _414  and  _415
REMARK  176  A    between atoms: _414  and  _417
REMARK  177  A    between atoms: _417  and  _418
REMARK  178  A    between atoms: _421  and  _423
REMARK  179  A    between atoms: _423  and  _424
REMARK  180  A    between atoms: _426  and  _428
REMARK  181  A    between atoms: _428  and  _429
REMARK  182  A    between atoms: _431  and  _433
REMARK  183  A    between atoms: _433  and  _434
REMARK  184  A    between atoms: _433  and  _436
REMARK  185  A    between atoms: _436  and  _437
REMARK  186  A    between atoms: _440  and  _442
REMARK  187  A    between atoms: _442  and  _443
REMARK  188  A    between atoms: _445  and  _447
REMARK  189  A    between atoms: _447  and  _448
REMARK  190  A    between atoms: _450  and  _452
REMARK  191  A    between atoms: _452  and  _453
REMARK  192  A    between atoms: _452  and  _455
REMARK  193  A    between atoms: _455  and  _456
REMARK  194  A    between atoms: _462  and  _464
REMARK  195  A    between atoms: _464  and  _465
REMARK  196  A    between atoms: _464  and  _467
REMARK  197  A    between atoms: _467  and  _468
REMARK  198  A    between atoms: _471  and  _473
REMARK  199  A    between atoms: _473  and  _474
REMARK  200  A    between atoms: _473  and  _476
REMARK  201  A    between atoms: _479  and  _481
REMARK  202  A    between atoms: _481  and  _482
REMARK  203  A    between atoms: _481  and  _484
REMARK  204  A    between atoms: _484  and  _485
REMARK  205  A    between atoms: _488  and  _490
REMARK  206  A    between atoms: _490  and  _491
REMARK  207  A    between atoms: _490  and  _493
REMARK  208  A    between atoms: _493  and  _494
REMARK  209  A    between atoms: _498  and  _499
REMARK  210  A    between atoms: _504  and  _506
REMARK  211  A    between atoms: _506  and  _507
REMARK  212  A    between atoms: _506  and  _509
REMARK  213  A    between atoms: _512  and  _514
REMARK  214  A    between atoms: _514  and  _515
REMARK  215  A    between atoms: _514  and  _517
REMARK  216  A    between atoms: _517  and  _518
REMARK  217  A    between atoms: _523  and  _525
REMARK  218  A    between atoms: _525  and  _526
REMARK  219  A    between atoms: _525  and  _528
REMARK  220  A    between atoms: _528  and  _529
REMARK  221  A    between atoms: _532  and  _534
REMARK  222  A    between atoms: _534  and  _535
REMARK  223  A    between atoms: _534  and  _537
REMARK  224  A    between atoms: _537  and  _538
REMARK  225  A    between atoms: _541  and  _543
REMARK  226  A    between atoms: _543  and  _544
REMARK  227  A    between atoms: _546  and  _548
REMARK  228  A    between atoms: _548  and  _549
REMARK  229  A    between atoms: _548  and  _551
REMARK  230  A    between atoms: _551  and  _552
REMARK  231  A    between atoms: _552  and  _553
REMARK  232  A    between atoms: _553  and  _554
REMARK  233  A    between atoms: _563  and  _565
REMARK  234  A    between atoms: _565  and  _566
REMARK  235  A    between atoms: _565  and  _568
REMARK  236  A    between atoms: _568  and  _569
REMARK                            x       y       z     vdW  Elec       q    Type
REMARK                         _______ _______ _______ _____ _____    ______ ____
ROOT
ATOM      1  O   HOH     1      23.530  15.273   2.052  0.00  0.00    +0.000 OA
ENDROOT
TORSDOF 0
REMARK  Name = ../refined-set-2016/2cen/2cen_pocket.pdb
REMARK  236 active torsions:
REMARK  status: ('A' for Active; 'I' for Inactive)
REMARK    1  A    between atoms: _1  and  _3
REMARK    2  A    between atoms: _3  and  _4
REMARK    3  A    between atoms: _3  and  _6
REMARK    4  A    between atoms: _6  and  _7
REMARK    5  A    between atoms: _7  and  _8
REMARK    6  A    between atoms: _8  and  _9
REMARK    7  A    between atoms: _18  and  _20
REMARK    8  A    between atoms: _20  and  _21
REMARK    9  A    between atoms: _20  and  _23
REMARK   10  A    between atoms: _23  and  _24
REMARK   11  A    between atoms: _27  and  _29
REMARK   12  A    between atoms: _29  and  _30
REMARK   13  A    between atoms: _29  and  _32
REMARK   14  A    between atoms: _32  and  _33
REMARK   15  A    between atoms: _36  and  _38
REMARK   16  A    between atoms: _38  and  _39
REMARK   17  A    between atoms: _38  and  _41
REMARK   18  A    between atoms: _41  and  _42
REMARK   19  A    between atoms: _45  and  _47
REMARK   20  A    between atoms: _47  and  _48
REMARK   21  A    between atoms: _47  and  _50
REMARK   22  A    between atoms: _50  and  _51
REMARK   23  A    between atoms: _54  and  _56
REMARK   24  A    between atoms: _56  and  _57
REMARK   25  A    between atoms: _56  and  _59
REMARK   26  A    between atoms: _59  and  _60
REMARK   27  A    between atoms: _63  and  _65
REMARK   28  A    between atoms: _65  and  _66
REMARK   29  A    between atoms: _68  and  _70
REMARK   30  A    between atoms: _70  and  _71
REMARK   31  A    between atoms: _74  and  _76
REMARK   32  A    between atoms: _76  and  _77
REMARK   33  A    between atoms: _76  and  _79
REMARK   34  A    between atoms: _79  and  _80
REMARK   35  A    between atoms: _83  and  _85
REMARK   36  A    between atoms: _85  and  _86
REMARK   37  A    between atoms: _85  and  _88
REMARK   38  A    between atoms: _88  and  _89
REMARK   39  A    between atoms: _92  and  _94
REMARK   40  A    between atoms: _94  and  _95
REMARK   41  A    between atoms: _94  and  _97
REMARK   42  A    between atoms: _97  and  _98
REMARK   43  A    between atoms: _101  and  _103
REMARK   44  A    between atoms: _103  and  _104
REMARK   45  A    between atoms: _103  and  _106
REMARK   46  A    between atoms: _109  and  _111
REMARK   47  A    between atoms: _111  and  _112
REMARK   48  A    between atoms: _111  and  _114
REMARK   49  A    between atoms: _114  and  _115
REMARK   50  A    between atoms: _115  and  _116
REMARK   51  A    between atoms: _116  and  _117
REMARK   52  A    between atoms: _117  and  _118
REMARK   53  A    between atoms: _122  and  _124
REMARK   54  A    between atoms: _124  and  _125
REMARK   55  A    between atoms: _124  and  _127
REMARK   56  A    between atoms: _127  and  _128
REMARK   57  A    between atoms: _128  and  _129
REMARK   58  A    between atoms: _131  and  _133
REMARK   59  A    between atoms: _133  and  _134
REMARK   60  A    between atoms: _133  and  _136
REMARK   61  A    between atoms: _136  and  _137
REMARK   62  A    between atoms: _140  and  _142
REMARK   63  A    between atoms: _142  and  _143
REMARK   64  A    between atoms: _145  and  _147
REMARK   65  A    between atoms: _147  and  _148
REMARK   66  A    between atoms: _150  and  _152
REMARK   67  A    between atoms: _152  and  _153
REMARK   68  A    between atoms: _152  and  _155
REMARK   69  A    between atoms: _155  and  _156
REMARK   70  A    between atoms: _159  and  _161
REMARK   71  A    between atoms: _161  and  _162
REMARK   72  A    between atoms: _164  and  _166
REMARK   73  A    between atoms: _166  and  _167
REMARK   74  A    between atoms: _169  and  _171
REMARK   75  A    between atoms: _171  and  _172
REMARK   76  A    between atoms: _171  and  _174
REMARK   77  A    between atoms: _174  and  _175
REMARK   78  A    between atoms: _181  and  _183
REMARK   79  A    between atoms: _183  and  _184
REMARK   80  A    between atoms: _183  and  _186
REMARK   81  A    between atoms: _186  and  _187
REMARK   82  A    between atoms: _190  and  _192
REMARK   83  A    between atoms: _192  and  _193
REMARK   84  A    between atoms: _192  and  _195
REMARK   85  A    between atoms: _198  and  _200
REMARK   86  A    between atoms: _200  and  _201
REMARK   87  A    between atoms: _200  and  _203
REMARK   88  A    between atoms: _203  and  _204
REMARK   89  A    between atoms: _207  and  _209
REMARK   90  A    between atoms: _209  and  _210
REMARK   91  A    between atoms: _209  and  _212
REMARK   92  A    between atoms: _212  and  _213
REMARK   93  A    between atoms: _217  and  _218
REMARK   94  A    between atoms: _223  and  _225
REMARK   95  A    between atoms: _225  and  _226
REMARK   96  A    between atoms: _225  and  _228
REMARK   97  A    between atoms: _231  and  _233
REMARK   98  A    between atoms: _233  and  _234
REMARK   99  A    between atoms: _233  and  _236
REMARK  100  A    between atoms: _236  and  _237
REMARK  101  A    between atoms: _242  and  _244
REMARK  102  A    between atoms: _244  and  _245
REMARK  103  A    between atoms: _244  and  _247
REMARK  104  A    between atoms: _247  and  _248
REMARK  105  A    between atoms: _251  and  _253
REMARK  106  A    between atoms: _253  and  _254
REMARK  107  A    between atoms: _253  and  _256
REMARK  108  A    between atoms: _256  and  _257
REMARK  109  A    between atoms: _260  and  _262
REMARK  110  A    between atoms: _262  and  _263
REMARK  111  A    between atoms: _265  and  _267
REMARK  112  A    between atoms: _267  and  _268
REMARK  113  A    between atoms: _267  and  _270
REMARK  114  A    between atoms: _270  and  _271
REMARK  115  A    between atoms: _271  and  _272
REMARK  116  A    between atoms: _272  and  _273
REMARK  117  A    between atoms: _282  and  _284
REMARK  118  A    between atoms: _284  and  _285
REMARK  119  A    between atoms: _284  and  _287
REMARK  120  A    between atoms: _287  and  _288
REMARK  121  A    between atoms: _288  and  _289
REMARK  122  A    between atoms: _289  and  _290
REMARK  123  A    between atoms: _299  and  _301
REMARK  124  A    between atoms: _301  and  _302
REMARK  125  A    between atoms: _301  and  _304
REMARK  126  A    between atoms: _304  and  _305
REMARK  127  A    between atoms: _308  and  _310
REMARK  128  A    between atoms: _310  and  _311
REMARK  129  A    between atoms: _310  and  _313
REMARK  130  A    between atoms: _313  and  _314
REMARK  131  A    between atoms: _317  and  _319
REMARK  132  A    between atoms: _319  and  _320
REMARK  133  A    between atoms: _319  and  _322
REMARK  134  A    between atoms: _322  and  _323
REMARK  135  A    between atoms: _326  and  _328
REMARK  136  A    between atoms: _328  and  _329
REMARK  137  A    between atoms: _328  and  _331
REMARK  138  A    between atoms: _331  and  _332
REMARK  139  A    between atoms: _335  and  _337
REMARK  140  A    between atoms: _337  and  _338
REMARK  141  A    between atoms: _340  and  _342
REMARK  142  A    between atoms: _342  and  _343
REMARK  143  A    between atoms: _346  and  _348
REMARK  144  A    between atoms: _348  and  _349
REMARK  145  A    between atoms: _348  and  _351
REMARK  146  A    between atoms: _351  and  _352
REMARK  147  A    between atoms: _355  and  _357
REMARK  148  A    between atoms: _357  and  _358
REMARK  149  A    between atoms: _357  and  _360
REMARK  150  A    between atoms: _360  and  _361
REMARK  151  A    between atoms: _364  and  _366
REMARK  152  A    between atoms: _366  and  _367
REMARK  153  A    between atoms: _366  and  _369
REMARK  154  A    between atoms: _369  and  _370
REMARK  155  A    between atoms: _373  and  _375
REMARK  156  A    between atoms: _375  and  _376
REMARK  157  A    between atoms: _375  and  _378
REMARK  158  A    between atoms: _381  and  _383
REMARK  159  A    between atoms: _383  and  _384
REMARK  160  A    between atoms: _383  and  _386
REMARK  161  A    between atoms: _386  and  _387
REMARK  162  A    between atoms: _390  and  _392
REMARK  163  A    between atoms: _392  and  _393
REMARK  164  A    between atoms: _392  and  _395
REMARK  165  A    between atoms: _395  and  _396
REMARK  166  A    between atoms: _396  and  _397
REMARK  167  A    between atoms: _397  and  _398
REMARK  168  A    between atoms: _398  and  _399
REMARK  169  A    between atoms: _403  and  _405
REMARK  170  A    between atoms: _405  and  _406
REMARK  171  A    between atoms: _405  and  _408
REMARK  172  A    between atoms: _408  and  _409
REMARK  173  A    between atoms: _409  and  _410
REMARK  174  A    between atoms: _412  and  _414
REMARK  175  A    between atoms: _414  and  _415
REMARK  176  A    between atoms: _414  and  _417
REMARK  177  A    between atoms: _417  and  _418
REMARK  178  A    between atoms: _421  and  _423
REMARK  179  A    between atoms: _423  and  _424
REMARK  180  A    between atoms: _426  and  _428
REMARK  181  A    between atoms: _428  and  _429
REMARK  182  A    between atoms: _431  and  _433
REMARK  183  A    between atoms: _433  and  _434
REMARK  184  A    between atoms: _433  and  _436
REMARK  185  A    between atoms: _436  and  _437
REMARK  186  A    between atoms: _440  and  _442
REMARK  187  A    between atoms: _442  and  _443
REMARK  188  A    between atoms: _445  and  _447
REMARK  189  A    between atoms: _447  and  _448
REMARK  190  A    between atoms: _450  and  _452
REMARK  191  A    between atoms: _452  and  _453
REMARK  192  A    between atoms: _452  and  _455
REMARK  193  A    between atoms: _455  and  _456
REMARK  194  A    between atoms: _462  and  _464
REMARK  195  A    between atoms: _464  and  _465
REMARK  196  A    between atoms: _464  and  _467
REMARK  197  A    between atoms: _467  and  _468
REMARK  198  A    between atoms: _471  and  _473
REMARK  199  A    between atoms: _473  and  _474
REMARK  200  A    between atoms: _473  and  _476
REMARK  201  A    between atoms: _479  and  _481
REMARK  202  A    between atoms: _481  and  _482
REMARK  203  A    between atoms: _481  and  _484
REMARK  204  A    between atoms: _484  and  _485
REMARK  205  A    between atoms: _488  and  _490
REMARK  206  A    between atoms: _490  and  _491
REMARK  207  A    between atoms: _490  and  _493
REMARK  208  A    between atoms: _493  and  _494
REMARK  209  A    between atoms: _498  and  _499
REMARK  210  A    between atoms: _504  and  _506
REMARK  211  A    between atoms: _506  and  _507
REMARK  212  A    between atoms: _506  and  _509
REMARK  213  A    between atoms: _512  and  _514
REMARK  214  A    between atoms: _514  and  _515
REMARK  215  A    between atoms: _514  and  _517
REMARK  216  A    between atoms: _517  and  _518
REMARK  217  A    between atoms: _523  and  _525
REMARK  218  A    between atoms: _525  and  _526
REMARK  219  A    between atoms: _525  and  _528
REMARK  220  A    between atoms: _528  and  _529
REMARK  221  A    between atoms: _532  and  _534
REMARK  222  A    between atoms: _534  and  _535
REMARK  223  A    between atoms: _534  and  _537
REMARK  224  A    between atoms: _537  and  _538
REMARK  225  A    between atoms: _541  and  _543
REMARK  226  A    between atoms: _543  and  _544
REMARK  227  A    between atoms: _546  and  _548
REMARK  228  A    between atoms: _548  and  _549
REMARK  229  A    between atoms: _548  and  _551
REMARK  230  A    between atoms: _551  and  _552
REMARK  231  A    between atoms: _552  and  _553
REMARK  232  A    between atoms: _553  and  _554
REMARK  233  A    between atoms: _563  and  _565
REMARK  234  A    between atoms: _565  and  _566
REMARK  235  A    between atoms: _565  and  _568
REMARK  236  A    between atoms: _568  and  _569
REMARK                            x       y       z     vdW  Elec       q    Type
REMARK                         _______ _______ _______ _____ _____    ______ ____
ROOT
ATOM      1  O   HOH     1      19.825  15.178   3.986  0.00  0.00    +0.000 OA
ENDROOT
TORSDOF 0
REMARK  Name = ../refined-set-2016/2cen/2cen_pocket.pdb
REMARK  236 active torsions:
REMARK  status: ('A' for Active; 'I' for Inactive)
REMARK    1  A    between atoms: _1  and  _3
REMARK    2  A    between atoms: _3  and  _4
REMARK    3  A    between atoms: _3  and  _6
REMARK    4  A    between atoms: _6  and  _7
REMARK    5  A    between atoms: _7  and  _8
REMARK    6  A    between atoms: _8  and  _9
REMARK    7  A    between atoms: _18  and  _20
REMARK    8  A    between atoms: _20  and  _21
REMARK    9  A    between atoms: _20  and  _23
REMARK   10  A    between atoms: _23  and  _24
REMARK   11  A    between atoms: _27  and  _29
REMARK   12  A    between atoms: _29  and  _30
REMARK   13  A    between atoms: _29  and  _32
REMARK   14  A    between atoms: _32  and  _33
REMARK   15  A    between atoms: _36  and  _38
REMARK   16  A    between atoms: _38  and  _39
REMARK   17  A    between atoms: _38  and  _41
REMARK   18  A    between atoms: _41  and  _42
REMARK   19  A    between atoms: _45  and  _47
REMARK   20  A    between atoms: _47  and  _48
REMARK   21  A    between atoms: _47  and  _50
REMARK   22  A    between atoms: _50  and  _51
REMARK   23  A    between atoms: _54  and  _56
REMARK   24  A    between atoms: _56  and  _57
REMARK   25  A    between atoms: _56  and  _59
REMARK   26  A    between atoms: _59  and  _60
REMARK   27  A    between atoms: _63  and  _65
REMARK   28  A    between atoms: _65  and  _66
REMARK   29  A    between atoms: _68  and  _70
REMARK   30  A    between atoms: _70  and  _71
REMARK   31  A    between atoms: _74  and  _76
REMARK   32  A    between atoms: _76  and  _77
REMARK   33  A    between atoms: _76  and  _79
REMARK   34  A    between atoms: _79  and  _80
REMARK   35  A    between atoms: _83  and  _85
REMARK   36  A    between atoms: _85  and  _86
REMARK   37  A    between atoms: _85  and  _88
REMARK   38  A    between atoms: _88  and  _89
REMARK   39  A    between atoms: _92  and  _94
REMARK   40  A    between atoms: _94  and  _95
REMARK   41  A    between atoms: _94  and  _97
REMARK   42  A    between atoms: _97  and  _98
REMARK   43  A    between atoms: _101  and  _103
REMARK   44  A    between atoms: _103  and  _104
REMARK   45  A    between atoms: _103  and  _106
REMARK   46  A    between atoms: _109  and  _111
REMARK   47  A    between atoms: _111  and  _112
REMARK   48  A    between atoms: _111  and  _114
REMARK   49  A    between atoms: _114  and  _115
REMARK   50  A    between atoms: _115  and  _116
REMARK   51  A    between atoms: _116  and  _117
REMARK   52  A    between atoms: _117  and  _118
REMARK   53  A    between atoms: _122  and  _124
REMARK   54  A    between atoms: _124  and  _125
REMARK   55  A    between atoms: _124  and  _127
REMARK   56  A    between atoms: _127  and  _128
REMARK   57  A    between atoms: _128  and  _129
REMARK   58  A    between atoms: _131  and  _133
REMARK   59  A    between atoms: _133  and  _134
REMARK   60  A    between atoms: _133  and  _136
REMARK   61  A    between atoms: _136  and  _137
REMARK   62  A    between atoms: _140  and  _142
REMARK   63  A    between atoms: _142  and  _143
REMARK   64  A    between atoms: _145  and  _147
REMARK   65  A    between atoms: _147  and  _148
REMARK   66  A    between atoms: _150  and  _152
REMARK   67  A    between atoms: _152  and  _153
REMARK   68  A    between atoms: _152  and  _155
REMARK   69  A    between atoms: _155  and  _156
REMARK   70  A    between atoms: _159  and  _161
REMARK   71  A    between atoms: _161  and  _162
REMARK   72  A    between atoms: _164  and  _166
REMARK   73  A    between atoms: _166  and  _167
REMARK   74  A    between atoms: _169  and  _171
REMARK   75  A    between atoms: _171  and  _172
REMARK   76  A    between atoms: _171  and  _174
REMARK   77  A    between atoms: _174  and  _175
REMARK   78  A    between atoms: _181  and  _183
REMARK   79  A    between atoms: _183  and  _184
REMARK   80  A    between atoms: _183  and  _186
REMARK   81  A    between atoms: _186  and  _187
REMARK   82  A    between atoms: _190  and  _192
REMARK   83  A    between atoms: _192  and  _193
REMARK   84  A    between atoms: _192  and  _195
REMARK   85  A    between atoms: _198  and  _200
REMARK   86  A    between atoms: _200  and  _201
REMARK   87  A    between atoms: _200  and  _203
REMARK   88  A    between atoms: _203  and  _204
REMARK   89  A    between atoms: _207  and  _209
REMARK   90  A    between atoms: _209  and  _210
REMARK   91  A    between atoms: _209  and  _212
REMARK   92  A    between atoms: _212  and  _213
REMARK   93  A    between atoms: _217  and  _218
REMARK   94  A    between atoms: _223  and  _225
REMARK   95  A    between atoms: _225  and  _226
REMARK   96  A    between atoms: _225  and  _228
REMARK   97  A    between atoms: _231  and  _233
REMARK   98  A    between atoms: _233  and  _234
REMARK   99  A    between atoms: _233  and  _236
REMARK  100  A    between atoms: _236  and  _237
REMARK  101  A    between atoms: _242  and  _244
REMARK  102  A    between atoms: _244  and  _245
REMARK  103  A    between atoms: _244  and  _247
REMARK  104  A    between atoms: _247  and  _248
REMARK  105  A    between atoms: _251  and  _253
REMARK  106  A    between atoms: _253  and  _254
REMARK  107  A    between atoms: _253  and  _256
REMARK  108  A    between atoms: _256  and  _257
REMARK  109  A    between atoms: _260  and  _262
REMARK  110  A    between atoms: _262  and  _263
REMARK  111  A    between atoms: _265  and  _267
REMARK  112  A    between atoms: _267  and  _268
REMARK  113  A    between atoms: _267  and  _270
REMARK  114  A    between atoms: _270  and  _271
REMARK  115  A    between atoms: _271  and  _272
REMARK  116  A    between atoms: _272  and  _273
REMARK  117  A    between atoms: _282  and  _284
REMARK  118  A    between atoms: _284  and  _285
REMARK  119  A    between atoms: _284  and  _287
REMARK  120  A    between atoms: _287  and  _288
REMARK  121  A    between atoms: _288  and  _289
REMARK  122  A    between atoms: _289  and  _290
REMARK  123  A    between atoms: _299  and  _301
REMARK  124  A    between atoms: _301  and  _302
REMARK  125  A    between atoms: _301  and  _304
REMARK  126  A    between atoms: _304  and  _305
REMARK  127  A    between atoms: _308  and  _310
REMARK  128  A    between atoms: _310  and  _311
REMARK  129  A    between atoms: _310  and  _313
REMARK  130  A    between atoms: _313  and  _314
REMARK  131  A    between atoms: _317  and  _319
REMARK  132  A    between atoms: _319  and  _320
REMARK  133  A    between atoms: _319  and  _322
REMARK  134  A    between atoms: _322  and  _323
REMARK  135  A    between atoms: _326  and  _328
REMARK  136  A    between atoms: _328  and  _329
REMARK  137  A    between atoms: _328  and  _331
REMARK  138  A    between atoms: _331  and  _332
REMARK  139  A    between atoms: _335  and  _337
REMARK  140  A    between atoms: _337  and  _338
REMARK  141  A    between atoms: _340  and  _342
REMARK  142  A    between atoms: _342  and  _343
REMARK  143  A    between atoms: _346  and  _348
REMARK  144  A    between atoms: _348  and  _349
REMARK  145  A    between atoms: _348  and  _351
REMARK  146  A    between atoms: _351  and  _352
REMARK  147  A    between atoms: _355  and  _357
REMARK  148  A    between atoms: _357  and  _358
REMARK  149  A    between atoms: _357  and  _360
REMARK  150  A    between atoms: _360  and  _361
REMARK  151  A    between atoms: _364  and  _366
REMARK  152  A    between atoms: _366  and  _367
REMARK  153  A    between atoms: _366  and  _369
REMARK  154  A    between atoms: _369  and  _370
REMARK  155  A    between atoms: _373  and  _375
REMARK  156  A    between atoms: _375  and  _376
REMARK  157  A    between atoms: _375  and  _378
REMARK  158  A    between atoms: _381  and  _383
REMARK  159  A    between atoms: _383  and  _384
REMARK  160  A    between atoms: _383  and  _386
REMARK  161  A    between atoms: _386  and  _387
REMARK  162  A    between atoms: _390  and  _392
REMARK  163  A    between atoms: _392  and  _393
REMARK  164  A    between atoms: _392  and  _395
REMARK  165  A    between atoms: _395  and  _396
REMARK  166  A    between atoms: _396  and  _397
REMARK  167  A    between atoms: _397  and  _398
REMARK  168  A    between atoms: _398  and  _399
REMARK  169  A    between atoms: _403  and  _405
REMARK  170  A    between atoms: _405  and  _406
REMARK  171  A    between atoms: _405  and  _408
REMARK  172  A    between atoms: _408  and  _409
REMARK  173  A    between atoms: _409  and  _410
REMARK  174  A    between atoms: _412  and  _414
REMARK  175  A    between atoms: _414  and  _415
REMARK  176  A    between atoms: _414  and  _417
REMARK  177  A    between atoms: _417  and  _418
REMARK  178  A    between atoms: _421  and  _423
REMARK  179  A    between atoms: _423  and  _424
REMARK  180  A    between atoms: _426  and  _428
REMARK  181  A    between atoms: _428  and  _429
REMARK  182  A    between atoms: _431  and  _433
REMARK  183  A    between atoms: _433  and  _434
REMARK  184  A    between atoms: _433  and  _436
REMARK  185  A    between atoms: _436  and  _437
REMARK  186  A    between atoms: _440  and  _442
REMARK  187  A    between atoms: _442  and  _443
REMARK  188  A    between atoms: _445  and  _447
REMARK  189  A    between atoms: _447  and  _448
REMARK  190  A    between atoms: _450  and  _452
REMARK  191  A    between atoms: _452  and  _453
REMARK  192  A    between atoms: _452  and  _455
REMARK  193  A    between atoms: _455  and  _456
REMARK  194  A    between atoms: _462  and  _464
REMARK  195  A    between atoms: _464  and  _465
REMARK  196  A    between atoms: _464  and  _467
REMARK  197  A    between atoms: _467  and  _468
REMARK  198  A    between atoms: _471  and  _473
REMARK  199  A    between atoms: _473  and  _474
REMARK  200  A    between atoms: _473  and  _476
REMARK  201  A    between atoms: _479  and  _481
REMARK  202  A    between atoms: _481  and  _482
REMARK  203  A    between atoms: _481  and  _484
REMARK  204  A    between atoms: _484  and  _485
REMARK  205  A    between atoms: _488  and  _490
REMARK  206  A    between atoms: _490  and  _491
REMARK  207  A    between atoms: _490  and  _493
REMARK  208  A    between atoms: _493  and  _494
REMARK  209  A    between atoms: _498  and  _499
REMARK  210  A    between atoms: _504  and  _506
REMARK  211  A    between atoms: _506  and  _507
REMARK  212  A    between atoms: _506  and  _509
REMARK  213  A    between atoms: _512  and  _514
REMARK  214  A    between atoms: _514  and  _515
REMARK  215  A    between atoms: _514  and  _517
REMARK  216  A    between atoms: _517  and  _518
REMARK  217  A    between atoms: _523  and  _525
REMARK  218  A    between atoms: _525  and  _526
REMARK  219  A    between atoms: _525  and  _528
REMARK  220  A    between atoms: _528  and  _529
REMARK  221  A    between atoms: _532  and  _534
REMARK  222  A    between atoms: _534  and  _535
REMARK  223  A    between atoms: _534  and  _537
REMARK  224  A    between atoms: _537  and  _538
REMARK  225  A    between atoms: _541  and  _543
REMARK  226  A    between atoms: _543  and  _544
REMARK  227  A    between atoms: _546  and  _548
REMARK  228  A    between atoms: _548  and  _549
REMARK  229  A    between atoms: _548  and  _551
REMARK  230  A    between atoms: _551  and  _552
REMARK  231  A    between atoms: _552  and  _553
REMARK  232  A    between atoms: _553  and  _554
REMARK  233  A    between atoms: _563  and  _565
REMARK  234  A    between atoms: _565  and  _566
REMARK  235  A    between atoms: _565  and  _568
REMARK  236  A    between atoms: _568  and  _569
REMARK                            x       y       z     vdW  Elec       q    Type
REMARK                         _______ _______ _______ _____ _____    ______ ____
ROOT
ATOM      1  O   HOH     1      22.558  15.651  -2.360  0.00  0.00    +0.000 OA
ENDROOT
TORSDOF 0
REMARK  Name = ../refined-set-2016/2cen/2cen_pocket.pdb
REMARK  236 active torsions:
REMARK  status: ('A' for Active; 'I' for Inactive)
REMARK    1  A    between atoms: _1  and  _3
REMARK    2  A    between atoms: _3  and  _4
REMARK    3  A    between atoms: _3  and  _6
REMARK    4  A    between atoms: _6  and  _7
REMARK    5  A    between atoms: _7  and  _8
REMARK    6  A    between atoms: _8  and  _9
REMARK    7  A    between atoms: _18  and  _20
REMARK    8  A    between atoms: _20  and  _21
REMARK    9  A    between atoms: _20  and  _23
REMARK   10  A    between atoms: _23  and  _24
REMARK   11  A    between atoms: _27  and  _29
REMARK   12  A    between atoms: _29  and  _30
REMARK   13  A    between atoms: _29  and  _32
REMARK   14  A    between atoms: _32  and  _33
REMARK   15  A    between atoms: _36  and  _38
REMARK   16  A    between atoms: _38  and  _39
REMARK   17  A    between atoms: _38  and  _41
REMARK   18  A    between atoms: _41  and  _42
REMARK   19  A    between atoms: _45  and  _47
REMARK   20  A    between atoms: _47  and  _48
REMARK   21  A    between atoms: _47  and  _50
REMARK   22  A    between atoms: _50  and  _51
REMARK   23  A    between atoms: _54  and  _56
REMARK   24  A    between atoms: _56  and  _57
REMARK   25  A    between atoms: _56  and  _59
REMARK   26  A    between atoms: _59  and  _60
REMARK   27  A    between atoms: _63  and  _65
REMARK   28  A    between atoms: _65  and  _66
REMARK   29  A    between atoms: _68  and  _70
REMARK   30  A    between atoms: _70  and  _71
REMARK   31  A    between atoms: _74  and  _76
REMARK   32  A    between atoms: _76  and  _77
REMARK   33  A    between atoms: _76  and  _79
REMARK   34  A    between atoms: _79  and  _80
REMARK   35  A    between atoms: _83  and  _85
REMARK   36  A    between atoms: _85  and  _86
REMARK   37  A    between atoms: _85  and  _88
REMARK   38  A    between atoms: _88  and  _89
REMARK   39  A    between atoms: _92  and  _94
REMARK   40  A    between atoms: _94  and  _95
REMARK   41  A    between atoms: _94  and  _97
REMARK   42  A    between atoms: _97  and  _98
REMARK   43  A    between atoms: _101  and  _103
REMARK   44  A    between atoms: _103  and  _104
REMARK   45  A    between atoms: _103  and  _106
REMARK   46  A    between atoms: _109  and  _111
REMARK   47  A    between atoms: _111  and  _112
REMARK   48  A    between atoms: _111  and  _114
REMARK   49  A    between atoms: _114  and  _115
REMARK   50  A    between atoms: _115  and  _116
REMARK   51  A    between atoms: _116  and  _117
REMARK   52  A    between atoms: _117  and  _118
REMARK   53  A    between atoms: _122  and  _124
REMARK   54  A    between atoms: _124  and  _125
REMARK   55  A    between atoms: _124  and  _127
REMARK   56  A    between atoms: _127  and  _128
REMARK   57  A    between atoms: _128  and  _129
REMARK   58  A    between atoms: _131  and  _133
REMARK   59  A    between atoms: _133  and  _134
REMARK   60  A    between atoms: _133  and  _136
REMARK   61  A    between atoms: _136  and  _137
REMARK   62  A    between atoms: _140  and  _142
REMARK   63  A    between atoms: _142  and  _143
REMARK   64  A    between atoms: _145  and  _147
REMARK   65  A    between atoms: _147  and  _148
REMARK   66  A    between atoms: _150  and  _152
REMARK   67  A    between atoms: _152  and  _153
REMARK   68  A    between atoms: _152  and  _155
REMARK   69  A    between atoms: _155  and  _156
REMARK   70  A    between atoms: _159  and  _161
REMARK   71  A    between atoms: _161  and  _162
REMARK   72  A    between atoms: _164  and  _166
REMARK   73  A    between atoms: _166  and  _167
REMARK   74  A    between atoms: _169  and  _171
REMARK   75  A    between atoms: _171  and  _172
REMARK   76  A    between atoms: _171  and  _174
REMARK   77  A    between atoms: _174  and  _175
REMARK   78  A    between atoms: _181  and  _183
REMARK   79  A    between atoms: _183  and  _184
REMARK   80  A    between atoms: _183  and  _186
REMARK   81  A    between atoms: _186  and  _187
REMARK   82  A    between atoms: _190  and  _192
REMARK   83  A    between atoms: _192  and  _193
REMARK   84  A    between atoms: _192  and  _195
REMARK   85  A    between atoms: _198  and  _200
REMARK   86  A    between atoms: _200  and  _201
REMARK   87  A    between atoms: _200  and  _203
REMARK   88  A    between atoms: _203  and  _204
REMARK   89  A    between atoms: _207  and  _209
REMARK   90  A    between atoms: _209  and  _210
REMARK   91  A    between atoms: _209  and  _212
REMARK   92  A    between atoms: _212  and  _213
REMARK   93  A    between atoms: _217  and  _218
REMARK   94  A    between atoms: _223  and  _225
REMARK   95  A    between atoms: _225  and  _226
REMARK   96  A    between atoms: _225  and  _228
REMARK   97  A    between atoms: _231  and  _233
REMARK   98  A    between atoms: _233  and  _234
REMARK   99  A    between atoms: _233  and  _236
REMARK  100  A    between atoms: _236  and  _237
REMARK  101  A    between atoms: _242  and  _244
REMARK  102  A    between atoms: _244  and  _245
REMARK  103  A    between atoms: _244  and  _247
REMARK  104  A    between atoms: _247  and  _248
REMARK  105  A    between atoms: _251  and  _253
REMARK  106  A    between atoms: _253  and  _254
REMARK  107  A    between atoms: _253  and  _256
REMARK  108  A    between atoms: _256  and  _257
REMARK  109  A    between atoms: _260  and  _262
REMARK  110  A    between atoms: _262  and  _263
REMARK  111  A    between atoms: _265  and  _267
REMARK  112  A    between atoms: _267  and  _268
REMARK  113  A    between atoms: _267  and  _270
REMARK  114  A    between atoms: _270  and  _271
REMARK  115  A    between atoms: _271  and  _272
REMARK  116  A    between atoms: _272  and  _273
REMARK  117  A    between atoms: _282  and  _284
REMARK  118  A    between atoms: _284  and  _285
REMARK  119  A    between atoms: _284  and  _287
REMARK  120  A    between atoms: _287  and  _288
REMARK  121  A    between atoms: _288  and  _289
REMARK  122  A    between atoms: _289  and  _290
REMARK  123  A    between atoms: _299  and  _301
REMARK  124  A    between atoms: _301  and  _302
REMARK  125  A    between atoms: _301  and  _304
REMARK  126  A    between atoms: _304  and  _305
REMARK  127  A    between atoms: _308  and  _310
REMARK  128  A    between atoms: _310  and  _311
REMARK  129  A    between atoms: _310  and  _313
REMARK  130  A    between atoms: _313  and  _314
REMARK  131  A    between atoms: _317  and  _319
REMARK  132  A    between atoms: _319  and  _320
REMARK  133  A    between atoms: _319  and  _322
REMARK  134  A    between atoms: _322  and  _323
REMARK  135  A    between atoms: _326  and  _328
REMARK  136  A    between atoms: _328  and  _329
REMARK  137  A    between atoms: _328  and  _331
REMARK  138  A    between atoms: _331  and  _332
REMARK  139  A    between atoms: _335  and  _337
REMARK  140  A    between atoms: _337  and  _338
REMARK  141  A    between atoms: _340  and  _342
REMARK  142  A    between atoms: _342  and  _343
REMARK  143  A    between atoms: _346  and  _348
REMARK  144  A    between atoms: _348  and  _349
REMARK  145  A    between atoms: _348  and  _351
REMARK  146  A    between atoms: _351  and  _352
REMARK  147  A    between atoms: _355  and  _357
REMARK  148  A    between atoms: _357  and  _358
REMARK  149  A    between atoms: _357  and  _360
REMARK  150  A    between atoms: _360  and  _361
REMARK  151  A    between atoms: _364  and  _366
REMARK  152  A    between atoms: _366  and  _367
REMARK  153  A    between atoms: _366  and  _369
REMARK  154  A    between atoms: _369  and  _370
REMARK  155  A    between atoms: _373  and  _375
REMARK  156  A    between atoms: _375  and  _376
REMARK  157  A    between atoms: _375  and  _378
REMARK  158  A    between atoms: _381  and  _383
REMARK  159  A    between atoms: _383  and  _384
REMARK  160  A    between atoms: _383  and  _386
REMARK  161  A    between atoms: _386  and  _387
REMARK  162  A    between atoms: _390  and  _392
REMARK  163  A    between atoms: _392  and  _393
REMARK  164  A    between atoms: _392  and  _395
REMARK  165  A    between atoms: _395  and  _396
REMARK  166  A    between atoms: _396  and  _397
REMARK  167  A    between atoms: _397  and  _398
REMARK  168  A    between atoms: _398  and  _399
REMARK  169  A    between atoms: _403  and  _405
REMARK  170  A    between atoms: _405  and  _406
REMARK  171  A    between atoms: _405  and  _408
REMARK  172  A    between atoms: _408  and  _409
REMARK  173  A    between atoms: _409  and  _410
REMARK  174  A    between atoms: _412  and  _414
REMARK  175  A    between atoms: _414  and  _415
REMARK  176  A    between atoms: _414  and  _417
REMARK  177  A    between atoms: _417  and  _418
REMARK  178  A    between atoms: _421  and  _423
REMARK  179  A    between atoms: _423  and  _424
REMARK  180  A    between atoms: _426  and  _428
REMARK  181  A    between atoms: _428  and  _429
REMARK  182  A    between atoms: _431  and  _433
REMARK  183  A    between atoms: _433  and  _434
REMARK  184  A    between atoms: _433  and  _436
REMARK  185  A    between atoms: _436  and  _437
REMARK  186  A    between atoms: _440  and  _442
REMARK  187  A    between atoms: _442  and  _443
REMARK  188  A    between atoms: _445  and  _447
REMARK  189  A    between atoms: _447  and  _448
REMARK  190  A    between atoms: _450  and  _452
REMARK  191  A    between atoms: _452  and  _453
REMARK  192  A    between atoms: _452  and  _455
REMARK  193  A    between atoms: _455  and  _456
REMARK  194  A    between atoms: _462  and  _464
REMARK  195  A    between atoms: _464  and  _465
REMARK  196  A    between atoms: _464  and  _467
REMARK  197  A    between atoms: _467  and  _468
REMARK  198  A    between atoms: _471  and  _473
REMARK  199  A    between atoms: _473  and  _474
REMARK  200  A    between atoms: _473  and  _476
REMARK  201  A    between atoms: _479  and  _481
REMARK  202  A    between atoms: _481  and  _482
REMARK  203  A    between atoms: _481  and  _484
REMARK  204  A    between atoms: _484  and  _485
REMARK  205  A    between atoms: _488  and  _490
REMARK  206  A    between atoms: _490  and  _491
REMARK  207  A    between atoms: _490  and  _493
REMARK  208  A    between atoms: _493  and  _494
REMARK  209  A    between atoms: _498  and  _499
REMARK  210  A    between atoms: _504  and  _506
REMARK  211  A    between atoms: _506  and  _507
REMARK  212  A    between atoms: _506  and  _509
REMARK  213  A    between atoms: _512  and  _514
REMARK  214  A    between atoms: _514  and  _515
REMARK  215  A    between atoms: _514  and  _517
REMARK  216  A    between atoms: _517  and  _518
REMARK  217  A    between atoms: _523  and  _525
REMARK  218  A    between atoms: _525  and  _526
REMARK  219  A    between atoms: _525  and  _528
REMARK  220  A    between atoms: _528  and  _529
REMARK  221  A    between atoms: _532  and  _534
REMARK  222  A    between atoms: _534  and  _535
REMARK  223  A    between atoms: _534  and  _537
REMARK  224  A    between atoms: _537  and  _538
REMARK  225  A    between atoms: _541  and  _543
REMARK  226  A    between atoms: _543  and  _544
REMARK  227  A    between atoms: _546  and  _548
REMARK  228  A    between atoms: _548  and  _549
REMARK  229  A    between atoms: _548  and  _551
REMARK  230  A    between atoms: _551  and  _552
REMARK  231  A    between atoms: _552  and  _553
REMARK  232  A    between atoms: _553  and  _554
REMARK  233  A    between atoms: _563  and  _565
REMARK  234  A    between atoms: _565  and  _566
REMARK  235  A    between atoms: _565  and  _568
REMARK  236  A    between atoms: _568  and  _569
REMARK                            x       y       z     vdW  Elec       q    Type
REMARK                         _______ _______ _______ _____ _____    ______ ____
ROOT
ATOM      1  O   HOH     1      22.463  12.490  -1.327  0.00  0.00    +0.000 OA
ENDROOT
TORSDOF 0
REMARK  Name = ../refined-set-2016/2cen/2cen_pocket.pdb
REMARK  236 active torsions:
REMARK  status: ('A' for Active; 'I' for Inactive)
REMARK    1  A    between atoms: _1  and  _3
REMARK    2  A    between atoms: _3  and  _4
REMARK    3  A    between atoms: _3  and  _6
REMARK    4  A    between atoms: _6  and  _7
REMARK    5  A    between atoms: _7  and  _8
REMARK    6  A    between atoms: _8  and  _9
REMARK    7  A    between atoms: _18  and  _20
REMARK    8  A    between atoms: _20  and  _21
REMARK    9  A    between atoms: _20  and  _23
REMARK   10  A    between atoms: _23  and  _24
REMARK   11  A    between atoms: _27  and  _29
REMARK   12  A    between atoms: _29  and  _30
REMARK   13  A    between atoms: _29  and  _32
REMARK   14  A    between atoms: _32  and  _33
REMARK   15  A    between atoms: _36  and  _38
REMARK   16  A    between atoms: _38  and  _39
REMARK   17  A    between atoms: _38  and  _41
REMARK   18  A    between atoms: _41  and  _42
REMARK   19  A    between atoms: _45  and  _47
REMARK   20  A    between atoms: _47  and  _48
REMARK   21  A    between atoms: _47  and  _50
REMARK   22  A    between atoms: _50  and  _51
REMARK   23  A    between atoms: _54  and  _56
REMARK   24  A    between atoms: _56  and  _57
REMARK   25  A    between atoms: _56  and  _59
REMARK   26  A    between atoms: _59  and  _60
REMARK   27  A    between atoms: _63  and  _65
REMARK   28  A    between atoms: _65  and  _66
REMARK   29  A    between atoms: _68  and  _70
REMARK   30  A    between atoms: _70  and  _71
REMARK   31  A    between atoms: _74  and  _76
REMARK   32  A    between atoms: _76  and  _77
REMARK   33  A    between atoms: _76  and  _79
REMARK   34  A    between atoms: _79  and  _80
REMARK   35  A    between atoms: _83  and  _85
REMARK   36  A    between atoms: _85  and  _86
REMARK   37  A    between atoms: _85  and  _88
REMARK   38  A    between atoms: _88  and  _89
REMARK   39  A    between atoms: _92  and  _94
REMARK   40  A    between atoms: _94  and  _95
REMARK   41  A    between atoms: _94  and  _97
REMARK   42  A    between atoms: _97  and  _98
REMARK   43  A    between atoms: _101  and  _103
REMARK   44  A    between atoms: _103  and  _104
REMARK   45  A    between atoms: _103  and  _106
REMARK   46  A    between atoms: _109  and  _111
REMARK   47  A    between atoms: _111  and  _112
REMARK   48  A    between atoms: _111  and  _114
REMARK   49  A    between atoms: _114  and  _115
REMARK   50  A    between atoms: _115  and  _116
REMARK   51  A    between atoms: _116  and  _117
REMARK   52  A    between atoms: _117  and  _118
REMARK   53  A    between atoms: _122  and  _124
REMARK   54  A    between atoms: _124  and  _125
REMARK   55  A    between atoms: _124  and  _127
REMARK   56  A    between atoms: _127  and  _128
REMARK   57  A    between atoms: _128  and  _129
REMARK   58  A    between atoms: _131  and  _133
REMARK   59  A    between atoms: _133  and  _134
REMARK   60  A    between atoms: _133  and  _136
REMARK   61  A    between atoms: _136  and  _137
REMARK   62  A    between atoms: _140  and  _142
REMARK   63  A    between atoms: _142  and  _143
REMARK   64  A    between atoms: _145  and  _147
REMARK   65  A    between atoms: _147  and  _148
REMARK   66  A    between atoms: _150  and  _152
REMARK   67  A    between atoms: _152  and  _153
REMARK   68  A    between atoms: _152  and  _155
REMARK   69  A    between atoms: _155  and  _156
REMARK   70  A    between atoms: _159  and  _161
REMARK   71  A    between atoms: _161  and  _162
REMARK   72  A    between atoms: _164  and  _166
REMARK   73  A    between atoms: _166  and  _167
REMARK   74  A    between atoms: _169  and  _171
REMARK   75  A    between atoms: _171  and  _172
REMARK   76  A    between atoms: _171  and  _174
REMARK   77  A    between atoms: _174  and  _175
REMARK   78  A    between atoms: _181  and  _183
REMARK   79  A    between atoms: _183  and  _184
REMARK   80  A    between atoms: _183  and  _186
REMARK   81  A    between atoms: _186  and  _187
REMARK   82  A    between atoms: _190  and  _192
REMARK   83  A    between atoms: _192  and  _193
REMARK   84  A    between atoms: _192  and  _195
REMARK   85  A    between atoms: _198  and  _200
REMARK   86  A    between atoms: _200  and  _201
REMARK   87  A    between atoms: _200  and  _203
REMARK   88  A    between atoms: _203  and  _204
REMARK   89  A    between atoms: _207  and  _209
REMARK   90  A    between atoms: _209  and  _210
REMARK   91  A    between atoms: _209  and  _212
REMARK   92  A    between atoms: _212  and  _213
REMARK   93  A    between atoms: _217  and  _218
REMARK   94  A    between atoms: _223  and  _225
REMARK   95  A    between atoms: _225  and  _226
REMARK   96  A    between atoms: _225  and  _228
REMARK   97  A    between atoms: _231  and  _233
REMARK   98  A    between atoms: _233  and  _234
REMARK   99  A    between atoms: _233  and  _236
REMARK  100  A    between atoms: _236  and  _237
REMARK  101  A    between atoms: _242  and  _244
REMARK  102  A    between atoms: _244  and  _245
REMARK  103  A    between atoms: _244  and  _247
REMARK  104  A    between atoms: _247  and  _248
REMARK  105  A    between atoms: _251  and  _253
REMARK  106  A    between atoms: _253  and  _254
REMARK  107  A    between atoms: _253  and  _256
REMARK  108  A    between atoms: _256  and  _257
REMARK  109  A    between atoms: _260  and  _262
REMARK  110  A    between atoms: _262  and  _263
REMARK  111  A    between atoms: _265  and  _267
REMARK  112  A    between atoms: _267  and  _268
REMARK  113  A    between atoms: _267  and  _270
REMARK  114  A    between atoms: _270  and  _271
REMARK  115  A    between atoms: _271  and  _272
REMARK  116  A    between atoms: _272  and  _273
REMARK  117  A    between atoms: _282  and  _284
REMARK  118  A    between atoms: _284  and  _285
REMARK  119  A    between atoms: _284  and  _287
REMARK  120  A    between atoms: _287  and  _288
REMARK  121  A    between atoms: _288  and  _289
REMARK  122  A    between atoms: _289  and  _290
REMARK  123  A    between atoms: _299  and  _301
REMARK  124  A    between atoms: _301  and  _302
REMARK  125  A    between atoms: _301  and  _304
REMARK  126  A    between atoms: _304  and  _305
REMARK  127  A    between atoms: _308  and  _310
REMARK  128  A    between atoms: _310  and  _311
REMARK  129  A    between atoms: _310  and  _313
REMARK  130  A    between atoms: _313  and  _314
REMARK  131  A    between atoms: _317  and  _319
REMARK  132  A    between atoms: _319  and  _320
REMARK  133  A    between atoms: _319  and  _322
REMARK  134  A    between atoms: _322  and  _323
REMARK  135  A    between atoms: _326  and  _328
REMARK  136  A    between atoms: _328  and  _329
REMARK  137  A    between atoms: _328  and  _331
REMARK  138  A    between atoms: _331  and  _332
REMARK  139  A    between atoms: _335  and  _337
REMARK  140  A    between atoms: _337  and  _338
REMARK  141  A    between atoms: _340  and  _342
REMARK  142  A    between atoms: _342  and  _343
REMARK  143  A    between atoms: _346  and  _348
REMARK  144  A    between atoms: _348  and  _349
REMARK  145  A    between atoms: _348  and  _351
REMARK  146  A    between atoms: _351  and  _352
REMARK  147  A    between atoms: _355  and  _357
REMARK  148  A    between atoms: _357  and  _358
REMARK  149  A    between atoms: _357  and  _360
REMARK  150  A    between atoms: _360  and  _361
REMARK  151  A    between atoms: _364  and  _366
REMARK  152  A    between atoms: _366  and  _367
REMARK  153  A    between atoms: _366  and  _369
REMARK  154  A    between atoms: _369  and  _370
REMARK  155  A    between atoms: _373  and  _375
REMARK  156  A    between atoms: _375  and  _376
REMARK  157  A    between atoms: _375  and  _378
REMARK  158  A    between atoms: _381  and  _383
REMARK  159  A    between atoms: _383  and  _384
REMARK  160  A    between atoms: _383  and  _386
REMARK  161  A    between atoms: _386  and  _387
REMARK  162  A    between atoms: _390  and  _392
REMARK  163  A    between atoms: _392  and  _393
REMARK  164  A    between atoms: _392  and  _395
REMARK  165  A    between atoms: _395  and  _396
REMARK  166  A    between atoms: _396  and  _397
REMARK  167  A    between atoms: _397  and  _398
REMARK  168  A    between atoms: _398  and  _399
REMARK  169  A    between atoms: _403  and  _405
REMARK  170  A    between atoms: _405  and  _406
REMARK  171  A    between atoms: _405  and  _408
REMARK  172  A    between atoms: _408  and  _409
REMARK  173  A    between atoms: _409  and  _410
REMARK  174  A    between atoms: _412  and  _414
REMARK  175  A    between atoms: _414  and  _415
REMARK  176  A    between atoms: _414  and  _417
REMARK  177  A    between atoms: _417  and  _418
REMARK  178  A    between atoms: _421  and  _423
REMARK  179  A    between atoms: _423  and  _424
REMARK  180  A    between atoms: _426  and  _428
REMARK  181  A    between atoms: _428  and  _429
REMARK  182  A    between atoms: _431  and  _433
REMARK  183  A    between atoms: _433  and  _434
REMARK  184  A    between atoms: _433  and  _436
REMARK  185  A    between atoms: _436  and  _437
REMARK  186  A    between atoms: _440  and  _442
REMARK  187  A    between atoms: _442  and  _443
REMARK  188  A    between atoms: _445  and  _447
REMARK  189  A    between atoms: _447  and  _448
REMARK  190  A    between atoms: _450  and  _452
REMARK  191  A    between atoms: _452  and  _453
REMARK  192  A    between atoms: _452  and  _455
REMARK  193  A    between atoms: _455  and  _456
REMARK  194  A    between atoms: _462  and  _464
REMARK  195  A    between atoms: _464  and  _465
REMARK  196  A    between atoms: _464  and  _467
REMARK  197  A    between atoms: _467  and  _468
REMARK  198  A    between atoms: _471  and  _473
REMARK  199  A    between atoms: _473  and  _474
REMARK  200  A    between atoms: _473  and  _476
REMARK  201  A    between atoms: _479  and  _481
REMARK  202  A    between atoms: _481  and  _482
REMARK  203  A    between atoms: _481  and  _484
REMARK  204  A    between atoms: _484  and  _485
REMARK  205  A    between atoms: _488  and  _490
REMARK  206  A    between atoms: _490  and  _491
REMARK  207  A    between atoms: _490  and  _493
REMARK  208  A    between atoms: _493  and  _494
REMARK  209  A    between atoms: _498  and  _499
REMARK  210  A    between atoms: _504  and  _506
REMARK  211  A    between atoms: _506  and  _507
REMARK  212  A    between atoms: _506  and  _509
REMARK  213  A    between atoms: _512  and  _514
REMARK  214  A    between atoms: _514  and  _515
REMARK  215  A    between atoms: _514  and  _517
REMARK  216  A    between atoms: _517  and  _518
REMARK  217  A    between atoms: _523  and  _525
REMARK  218  A    between atoms: _525  and  _526
REMARK  219  A    between atoms: _525  and  _528
REMARK  220  A    between atoms: _528  and  _529
REMARK  221  A    between atoms: _532  and  _534
REMARK  222  A    between atoms: _534  and  _535
REMARK  223  A    between atoms: _534  and  _537
REMARK  224  A    between atoms: _537  and  _538
REMARK  225  A    between atoms: _541  and  _543
REMARK  226  A    between atoms: _543  and  _544
REMARK  227  A    between atoms: _546  and  _548
REMARK  228  A    between atoms: _548  and  _549
REMARK  229  A    between atoms: _548  and  _551
REMARK  230  A    between atoms: _551  and  _552
REMARK  231  A    between atoms: _552  and  _553
REMARK  232  A    between atoms: _553  and  _554
REMARK  233  A    between atoms: _563  and  _565
REMARK  234  A    between atoms: _565  and  _566
REMARK  235  A    between atoms: _565  and  _568
REMARK  236  A    between atoms: _568  and  _569
REMARK                            x       y       z     vdW  Elec       q    Type
REMARK                         _______ _______ _______ _____ _____    ______ ____
ROOT
ATOM      1  O   HOH     1      18.172  16.460   8.424  0.00  0.00    +0.000 OA
ENDROOT
TORSDOF 0
REMARK  Name = ../refined-set-2016/2cen/2cen_pocket.pdb
REMARK  236 active torsions:
REMARK  status: ('A' for Active; 'I' for Inactive)
REMARK    1  A    between atoms: _1  and  _3
REMARK    2  A    between atoms: _3  and  _4
REMARK    3  A    between atoms: _3  and  _6
REMARK    4  A    between atoms: _6  and  _7
REMARK    5  A    between atoms: _7  and  _8
REMARK    6  A    between atoms: _8  and  _9
REMARK    7  A    between atoms: _18  and  _20
REMARK    8  A    between atoms: _20  and  _21
REMARK    9  A    between atoms: _20  and  _23
REMARK   10  A    between atoms: _23  and  _24
REMARK   11  A    between atoms: _27  and  _29
REMARK   12  A    between atoms: _29  and  _30
REMARK   13  A    between atoms: _29  and  _32
REMARK   14  A    between atoms: _32  and  _33
REMARK   15  A    between atoms: _36  and  _38
REMARK   16  A    between atoms: _38  and  _39
REMARK   17  A    between atoms: _38  and  _41
REMARK   18  A    between atoms: _41  and  _42
REMARK   19  A    between atoms: _45  and  _47
REMARK   20  A    between atoms: _47  and  _48
REMARK   21  A    between atoms: _47  and  _50
REMARK   22  A    between atoms: _50  and  _51
REMARK   23  A    between atoms: _54  and  _56
REMARK   24  A    between atoms: _56  and  _57
REMARK   25  A    between atoms: _56  and  _59
REMARK   26  A    between atoms: _59  and  _60
REMARK   27  A    between atoms: _63  and  _65
REMARK   28  A    between atoms: _65  and  _66
REMARK   29  A    between atoms: _68  and  _70
REMARK   30  A    between atoms: _70  and  _71
REMARK   31  A    between atoms: _74  and  _76
REMARK   32  A    between atoms: _76  and  _77
REMARK   33  A    between atoms: _76  and  _79
REMARK   34  A    between atoms: _79  and  _80
REMARK   35  A    between atoms: _83  and  _85
REMARK   36  A    between atoms: _85  and  _86
REMARK   37  A    between atoms: _85  and  _88
REMARK   38  A    between atoms: _88  and  _89
REMARK   39  A    between atoms: _92  and  _94
REMARK   40  A    between atoms: _94  and  _95
REMARK   41  A    between atoms: _94  and  _97
REMARK   42  A    between atoms: _97  and  _98
REMARK   43  A    between atoms: _101  and  _103
REMARK   44  A    between atoms: _103  and  _104
REMARK   45  A    between atoms: _103  and  _106
REMARK   46  A    between atoms: _109  and  _111
REMARK   47  A    between atoms: _111  and  _112
REMARK   48  A    between atoms: _111  and  _114
REMARK   49  A    between atoms: _114  and  _115
REMARK   50  A    between atoms: _115  and  _116
REMARK   51  A    between atoms: _116  and  _117
REMARK   52  A    between atoms: _117  and  _118
REMARK   53  A    between atoms: _122  and  _124
REMARK   54  A    between atoms: _124  and  _125
REMARK   55  A    between atoms: _124  and  _127
REMARK   56  A    between atoms: _127  and  _128
REMARK   57  A    between atoms: _128  and  _129
REMARK   58  A    between atoms: _131  and  _133
REMARK   59  A    between atoms: _133  and  _134
REMARK   60  A    between atoms: _133  and  _136
REMARK   61  A    between atoms: _136  and  _137
REMARK   62  A    between atoms: _140  and  _142
REMARK   63  A    between atoms: _142  and  _143
REMARK   64  A    between atoms: _145  and  _147
REMARK   65  A    between atoms: _147  and  _148
REMARK   66  A    between atoms: _150  and  _152
REMARK   67  A    between atoms: _152  and  _153
REMARK   68  A    between atoms: _152  and  _155
REMARK   69  A    between atoms: _155  and  _156
REMARK   70  A    between atoms: _159  and  _161
REMARK   71  A    between atoms: _161  and  _162
REMARK   72  A    between atoms: _164  and  _166
REMARK   73  A    between atoms: _166  and  _167
REMARK   74  A    between atoms: _169  and  _171
REMARK   75  A    between atoms: _171  and  _172
REMARK   76  A    between atoms: _171  and  _174
REMARK   77  A    between atoms: _174  and  _175
REMARK   78  A    between atoms: _181  and  _183
REMARK   79  A    between atoms: _183  and  _184
REMARK   80  A    between atoms: _183  and  _186
REMARK   81  A    between atoms: _186  and  _187
REMARK   82  A    between atoms: _190  and  _192
REMARK   83  A    between atoms: _192  and  _193
REMARK   84  A    between atoms: _192  and  _195
REMARK   85  A    between atoms: _198  and  _200
REMARK   86  A    between atoms: _200  and  _201
REMARK   87  A    between atoms: _200  and  _203
REMARK   88  A    between atoms: _203  and  _204
REMARK   89  A    between atoms: _207  and  _209
REMARK   90  A    between atoms: _209  and  _210
REMARK   91  A    between atoms: _209  and  _212
REMARK   92  A    between atoms: _212  and  _213
REMARK   93  A    between atoms: _217  and  _218
REMARK   94  A    between atoms: _223  and  _225
REMARK   95  A    between atoms: _225  and  _226
REMARK   96  A    between atoms: _225  and  _228
REMARK   97  A    between atoms: _231  and  _233
REMARK   98  A    between atoms: _233  and  _234
REMARK   99  A    between atoms: _233  and  _236
REMARK  100  A    between atoms: _236  and  _237
REMARK  101  A    between atoms: _242  and  _244
REMARK  102  A    between atoms: _244  and  _245
REMARK  103  A    between atoms: _244  and  _247
REMARK  104  A    between atoms: _247  and  _248
REMARK  105  A    between atoms: _251  and  _253
REMARK  106  A    between atoms: _253  and  _254
REMARK  107  A    between atoms: _253  and  _256
REMARK  108  A    between atoms: _256  and  _257
REMARK  109  A    between atoms: _260  and  _262
REMARK  110  A    between atoms: _262  and  _263
REMARK  111  A    between atoms: _265  and  _267
REMARK  112  A    between atoms: _267  and  _268
REMARK  113  A    between atoms: _267  and  _270
REMARK  114  A    between atoms: _270  and  _271
REMARK  115  A    between atoms: _271  and  _272
REMARK  116  A    between atoms: _272  and  _273
REMARK  117  A    between atoms: _282  and  _284
REMARK  118  A    between atoms: _284  and  _285
REMARK  119  A    between atoms: _284  and  _287
REMARK  120  A    between atoms: _287  and  _288
REMARK  121  A    between atoms: _288  and  _289
REMARK  122  A    between atoms: _289  and  _290
REMARK  123  A    between atoms: _299  and  _301
REMARK  124  A    between atoms: _301  and  _302
REMARK  125  A    between atoms: _301  and  _304
REMARK  126  A    between atoms: _304  and  _305
REMARK  127  A    between atoms: _308  and  _310
REMARK  128  A    between atoms: _310  and  _311
REMARK  129  A    between atoms: _310  and  _313
REMARK  130  A    between atoms: _313  and  _314
REMARK  131  A    between atoms: _317  and  _319
REMARK  132  A    between atoms: _319  and  _320
REMARK  133  A    between atoms: _319  and  _322
REMARK  134  A    between atoms: _322  and  _323
REMARK  135  A    between atoms: _326  and  _328
REMARK  136  A    between atoms: _328  and  _329
REMARK  137  A    between atoms: _328  and  _331
REMARK  138  A    between atoms: _331  and  _332
REMARK  139  A    between atoms: _335  and  _337
REMARK  140  A    between atoms: _337  and  _338
REMARK  141  A    between atoms: _340  and  _342
REMARK  142  A    between atoms: _342  and  _343
REMARK  143  A    between atoms: _346  and  _348
REMARK  144  A    between atoms: _348  and  _349
REMARK  145  A    between atoms: _348  and  _351
REMARK  146  A    between atoms: _351  and  _352
REMARK  147  A    between atoms: _355  and  _357
REMARK  148  A    between atoms: _357  and  _358
REMARK  149  A    between atoms: _357  and  _360
REMARK  150  A    between atoms: _360  and  _361
REMARK  151  A    between atoms: _364  and  _366
REMARK  152  A    between atoms: _366  and  _367
REMARK  153  A    between atoms: _366  and  _369
REMARK  154  A    between atoms: _369  and  _370
REMARK  155  A    between atoms: _373  and  _375
REMARK  156  A    between atoms: _375  and  _376
REMARK  157  A    between atoms: _375  and  _378
REMARK  158  A    between atoms: _381  and  _383
REMARK  159  A    between atoms: _383  and  _384
REMARK  160  A    between atoms: _383  and  _386
REMARK  161  A    between atoms: _386  and  _387
REMARK  162  A    between atoms: _390  and  _392
REMARK  163  A    between atoms: _392  and  _393
REMARK  164  A    between atoms: _392  and  _395
REMARK  165  A    between atoms: _395  and  _396
REMARK  166  A    between atoms: _396  and  _397
REMARK  167  A    between atoms: _397  and  _398
REMARK  168  A    between atoms: _398  and  _399
REMARK  169  A    between atoms: _403  and  _405
REMARK  170  A    between atoms: _405  and  _406
REMARK  171  A    between atoms: _405  and  _408
REMARK  172  A    between atoms: _408  and  _409
REMARK  173  A    between atoms: _409  and  _410
REMARK  174  A    between atoms: _412  and  _414
REMARK  175  A    between atoms: _414  and  _415
REMARK  176  A    between atoms: _414  and  _417
REMARK  177  A    between atoms: _417  and  _418
REMARK  178  A    between atoms: _421  and  _423
REMARK  179  A    between atoms: _423  and  _424
REMARK  180  A    between atoms: _426  and  _428
REMARK  181  A    between atoms: _428  and  _429
REMARK  182  A    between atoms: _431  and  _433
REMARK  183  A    between atoms: _433  and  _434
REMARK  184  A    between atoms: _433  and  _436
REMARK  185  A    between atoms: _436  and  _437
REMARK  186  A    between atoms: _440  and  _442
REMARK  187  A    between atoms: _442  and  _443
REMARK  188  A    between atoms: _445  and  _447
REMARK  189  A    between atoms: _447  and  _448
REMARK  190  A    between atoms: _450  and  _452
REMARK  191  A    between atoms: _452  and  _453
REMARK  192  A    between atoms: _452  and  _455
REMARK  193  A    between atoms: _455  and  _456
REMARK  194  A    between atoms: _462  and  _464
REMARK  195  A    between atoms: _464  and  _465
REMARK  196  A    between atoms: _464  and  _467
REMARK  197  A    between atoms: _467  and  _468
REMARK  198  A    between atoms: _471  and  _473
REMARK  199  A    between atoms: _473  and  _474
REMARK  200  A    between atoms: _473  and  _476
REMARK  201  A    between atoms: _479  and  _481
REMARK  202  A    between atoms: _481  and  _482
REMARK  203  A    between atoms: _481  and  _484
REMARK  204  A    between atoms: _484  and  _485
REMARK  205  A    between atoms: _488  and  _490
REMARK  206  A    between atoms: _490  and  _491
REMARK  207  A    between atoms: _490  and  _493
REMARK  208  A    between atoms: _493  and  _494
REMARK  209  A    between atoms: _498  and  _499
REMARK  210  A    between atoms: _504  and  _506
REMARK  211  A    between atoms: _506  and  _507
REMARK  212  A    between atoms: _506  and  _509
REMARK  213  A    between atoms: _512  and  _514
REMARK  214  A    between atoms: _514  and  _515
REMARK  215  A    between atoms: _514  and  _517
REMARK  216  A    between atoms: _517  and  _518
REMARK  217  A    between atoms: _523  and  _525
REMARK  218  A    between atoms: _525  and  _526
REMARK  219  A    between atoms: _525  and  _528
REMARK  220  A    between atoms: _528  and  _529
REMARK  221  A    between atoms: _532  and  _534
REMARK  222  A    between atoms: _534  and  _535
REMARK  223  A    between atoms: _534  and  _537
REMARK  224  A    between atoms: _537  and  _538
REMARK  225  A    between atoms: _541  and  _543
REMARK  226  A    between atoms: _543  and  _544
REMARK  227  A    between atoms: _546  and  _548
REMARK  228  A    between atoms: _548  and  _549
REMARK  229  A    between atoms: _548  and  _551
REMARK  230  A    between atoms: _551  and  _552
REMARK  231  A    between atoms: _552  and  _553
REMARK  232  A    between atoms: _553  and  _554
REMARK  233  A    between atoms: _563  and  _565
REMARK  234  A    between atoms: _565  and  _566
REMARK  235  A    between atoms: _565  and  _568
REMARK  236  A    between atoms: _568  and  _569
REMARK                            x       y       z     vdW  Elec       q    Type
REMARK                         _______ _______ _______ _____ _____    ______ ____
ROOT
ATOM      1  O   HOH     1      18.293  14.627   6.227  0.00  0.00    +0.000 OA
ENDROOT
TORSDOF 0
REMARK  Name = ../refined-set-2016/2cen/2cen_pocket.pdb
REMARK  236 active torsions:
REMARK  status: ('A' for Active; 'I' for Inactive)
REMARK    1  A    between atoms: _1  and  _3
REMARK    2  A    between atoms: _3  and  _4
REMARK    3  A    between atoms: _3  and  _6
REMARK    4  A    between atoms: _6  and  _7
REMARK    5  A    between atoms: _7  and  _8
REMARK    6  A    between atoms: _8  and  _9
REMARK    7  A    between atoms: _18  and  _20
REMARK    8  A    between atoms: _20  and  _21
REMARK    9  A    between atoms: _20  and  _23
REMARK   10  A    between atoms: _23  and  _24
REMARK   11  A    between atoms: _27  and  _29
REMARK   12  A    between atoms: _29  and  _30
REMARK   13  A    between atoms: _29  and  _32
REMARK   14  A    between atoms: _32  and  _33
REMARK   15  A    between atoms: _36  and  _38
REMARK   16  A    between atoms: _38  and  _39
REMARK   17  A    between atoms: _38  and  _41
REMARK   18  A    between atoms: _41  and  _42
REMARK   19  A    between atoms: _45  and  _47
REMARK   20  A    between atoms: _47  and  _48
REMARK   21  A    between atoms: _47  and  _50
REMARK   22  A    between atoms: _50  and  _51
REMARK   23  A    between atoms: _54  and  _56
REMARK   24  A    between atoms: _56  and  _57
REMARK   25  A    between atoms: _56  and  _59
REMARK   26  A    between atoms: _59  and  _60
REMARK   27  A    between atoms: _63  and  _65
REMARK   28  A    between atoms: _65  and  _66
REMARK   29  A    between atoms: _68  and  _70
REMARK   30  A    between atoms: _70  and  _71
REMARK   31  A    between atoms: _74  and  _76
REMARK   32  A    between atoms: _76  and  _77
REMARK   33  A    between atoms: _76  and  _79
REMARK   34  A    between atoms: _79  and  _80
REMARK   35  A    between atoms: _83  and  _85
REMARK   36  A    between atoms: _85  and  _86
REMARK   37  A    between atoms: _85  and  _88
REMARK   38  A    between atoms: _88  and  _89
REMARK   39  A    between atoms: _92  and  _94
REMARK   40  A    between atoms: _94  and  _95
REMARK   41  A    between atoms: _94  and  _97
REMARK   42  A    between atoms: _97  and  _98
REMARK   43  A    between atoms: _101  and  _103
REMARK   44  A    between atoms: _103  and  _104
REMARK   45  A    between atoms: _103  and  _106
REMARK   46  A    between atoms: _109  and  _111
REMARK   47  A    between atoms: _111  and  _112
REMARK   48  A    between atoms: _111  and  _114
REMARK   49  A    between atoms: _114  and  _115
REMARK   50  A    between atoms: _115  and  _116
REMARK   51  A    between atoms: _116  and  _117
REMARK   52  A    between atoms: _117  and  _118
REMARK   53  A    between atoms: _122  and  _124
REMARK   54  A    between atoms: _124  and  _125
REMARK   55  A    between atoms: _124  and  _127
REMARK   56  A    between atoms: _127  and  _128
REMARK   57  A    between atoms: _128  and  _129
REMARK   58  A    between atoms: _131  and  _133
REMARK   59  A    between atoms: _133  and  _134
REMARK   60  A    between atoms: _133  and  _136
REMARK   61  A    between atoms: _136  and  _137
REMARK   62  A    between atoms: _140  and  _142
REMARK   63  A    between atoms: _142  and  _143
REMARK   64  A    between atoms: _145  and  _147
REMARK   65  A    between atoms: _147  and  _148
REMARK   66  A    between atoms: _150  and  _152
REMARK   67  A    between atoms: _152  and  _153
REMARK   68  A    between atoms: _152  and  _155
REMARK   69  A    between atoms: _155  and  _156
REMARK   70  A    between atoms: _159  and  _161
REMARK   71  A    between atoms: _161  and  _162
REMARK   72  A    between atoms: _164  and  _166
REMARK   73  A    between atoms: _166  and  _167
REMARK   74  A    between atoms: _169  and  _171
REMARK   75  A    between atoms: _171  and  _172
REMARK   76  A    between atoms: _171  and  _174
REMARK   77  A    between atoms: _174  and  _175
REMARK   78  A    between atoms: _181  and  _183
REMARK   79  A    between atoms: _183  and  _184
REMARK   80  A    between atoms: _183  and  _186
REMARK   81  A    between atoms: _186  and  _187
REMARK   82  A    between atoms: _190  and  _192
REMARK   83  A    between atoms: _192  and  _193
REMARK   84  A    between atoms: _192  and  _195
REMARK   85  A    between atoms: _198  and  _200
REMARK   86  A    between atoms: _200  and  _201
REMARK   87  A    between atoms: _200  and  _203
REMARK   88  A    between atoms: _203  and  _204
REMARK   89  A    between atoms: _207  and  _209
REMARK   90  A    between atoms: _209  and  _210
REMARK   91  A    between atoms: _209  and  _212
REMARK   92  A    between atoms: _212  and  _213
REMARK   93  A    between atoms: _217  and  _218
REMARK   94  A    between atoms: _223  and  _225
REMARK   95  A    between atoms: _225  and  _226
REMARK   96  A    between atoms: _225  and  _228
REMARK   97  A    between atoms: _231  and  _233
REMARK   98  A    between atoms: _233  and  _234
REMARK   99  A    between atoms: _233  and  _236
REMARK  100  A    between atoms: _236  and  _237
REMARK  101  A    between atoms: _242  and  _244
REMARK  102  A    between atoms: _244  and  _245
REMARK  103  A    between atoms: _244  and  _247
REMARK  104  A    between atoms: _247  and  _248
REMARK  105  A    between atoms: _251  and  _253
REMARK  106  A    between atoms: _253  and  _254
REMARK  107  A    between atoms: _253  and  _256
REMARK  108  A    between atoms: _256  and  _257
REMARK  109  A    between atoms: _260  and  _262
REMARK  110  A    between atoms: _262  and  _263
REMARK  111  A    between atoms: _265  and  _267
REMARK  112  A    between atoms: _267  and  _268
REMARK  113  A    between atoms: _267  and  _270
REMARK  114  A    between atoms: _270  and  _271
REMARK  115  A    between atoms: _271  and  _272
REMARK  116  A    between atoms: _272  and  _273
REMARK  117  A    between atoms: _282  and  _284
REMARK  118  A    between atoms: _284  and  _285
REMARK  119  A    between atoms: _284  and  _287
REMARK  120  A    between atoms: _287  and  _288
REMARK  121  A    between atoms: _288  and  _289
REMARK  122  A    between atoms: _289  and  _290
REMARK  123  A    between atoms: _299  and  _301
REMARK  124  A    between atoms: _301  and  _302
REMARK  125  A    between atoms: _301  and  _304
REMARK  126  A    between atoms: _304  and  _305
REMARK  127  A    between atoms: _308  and  _310
REMARK  128  A    between atoms: _310  and  _311
REMARK  129  A    between atoms: _310  and  _313
REMARK  130  A    between atoms: _313  and  _314
REMARK  131  A    between atoms: _317  and  _319
REMARK  132  A    between atoms: _319  and  _320
REMARK  133  A    between atoms: _319  and  _322
REMARK  134  A    between atoms: _322  and  _323
REMARK  135  A    between atoms: _326  and  _328
REMARK  136  A    between atoms: _328  and  _329
REMARK  137  A    between atoms: _328  and  _331
REMARK  138  A    between atoms: _331  and  _332
REMARK  139  A    between atoms: _335  and  _337
REMARK  140  A    between atoms: _337  and  _338
REMARK  141  A    between atoms: _340  and  _342
REMARK  142  A    between atoms: _342  and  _343
REMARK  143  A    between atoms: _346  and  _348
REMARK  144  A    between atoms: _348  and  _349
REMARK  145  A    between atoms: _348  and  _351
REMARK  146  A    between atoms: _351  and  _352
REMARK  147  A    between atoms: _355  and  _357
REMARK  148  A    between atoms: _357  and  _358
REMARK  149  A    between atoms: _357  and  _360
REMARK  150  A    between atoms: _360  and  _361
REMARK  151  A    between atoms: _364  and  _366
REMARK  152  A    between atoms: _366  and  _367
REMARK  153  A    between atoms: _366  and  _369
REMARK  154  A    between atoms: _369  and  _370
REMARK  155  A    between atoms: _373  and  _375
REMARK  156  A    between atoms: _375  and  _376
REMARK  157  A    between atoms: _375  and  _378
REMARK  158  A    between atoms: _381  and  _383
REMARK  159  A    between atoms: _383  and  _384
REMARK  160  A    between atoms: _383  and  _386
REMARK  161  A    between atoms: _386  and  _387
REMARK  162  A    between atoms: _390  and  _392
REMARK  163  A    between atoms: _392  and  _393
REMARK  164  A    between atoms: _392  and  _395
REMARK  165  A    between atoms: _395  and  _396
REMARK  166  A    between atoms: _396  and  _397
REMARK  167  A    between atoms: _397  and  _398
REMARK  168  A    between atoms: _398  and  _399
REMARK  169  A    between atoms: _403  and  _405
REMARK  170  A    between atoms: _405  and  _406
REMARK  171  A    between atoms: _405  and  _408
REMARK  172  A    between atoms: _408  and  _409
REMARK  173  A    between atoms: _409  and  _410
REMARK  174  A    between atoms: _412  and  _414
REMARK  175  A    between atoms: _414  and  _415
REMARK  176  A    between atoms: _414  and  _417
REMARK  177  A    between atoms: _417  and  _418
REMARK  178  A    between atoms: _421  and  _423
REMARK  179  A    between atoms: _423  and  _424
REMARK  180  A    between atoms: _426  and  _428
REMARK  181  A    between atoms: _428  and  _429
REMARK  182  A    between atoms: _431  and  _433
REMARK  183  A    between atoms: _433  and  _434
REMARK  184  A    between atoms: _433  and  _436
REMARK  185  A    between atoms: _436  and  _437
REMARK  186  A    between atoms: _440  and  _442
REMARK  187  A    between atoms: _442  and  _443
REMARK  188  A    between atoms: _445  and  _447
REMARK  189  A    between atoms: _447  and  _448
REMARK  190  A    between atoms: _450  and  _452
REMARK  191  A    between atoms: _452  and  _453
REMARK  192  A    between atoms: _452  and  _455
REMARK  193  A    between atoms: _455  and  _456
REMARK  194  A    between atoms: _462  and  _464
REMARK  195  A    between atoms: _464  and  _465
REMARK  196  A    between atoms: _464  and  _467
REMARK  197  A    between atoms: _467  and  _468
REMARK  198  A    between atoms: _471  and  _473
REMARK  199  A    between atoms: _473  and  _474
REMARK  200  A    between atoms: _473  and  _476
REMARK  201  A    between atoms: _479  and  _481
REMARK  202  A    between atoms: _481  and  _482
REMARK  203  A    between atoms: _481  and  _484
REMARK  204  A    between atoms: _484  and  _485
REMARK  205  A    between atoms: _488  and  _490
REMARK  206  A    between atoms: _490  and  _491
REMARK  207  A    between atoms: _490  and  _493
REMARK  208  A    between atoms: _493  and  _494
REMARK  209  A    between atoms: _498  and  _499
REMARK  210  A    between atoms: _504  and  _506
REMARK  211  A    between atoms: _506  and  _507
REMARK  212  A    between atoms: _506  and  _509
REMARK  213  A    between atoms: _512  and  _514
REMARK  214  A    between atoms: _514  and  _515
REMARK  215  A    between atoms: _514  and  _517
REMARK  216  A    between atoms: _517  and  _518
REMARK  217  A    between atoms: _523  and  _525
REMARK  218  A    between atoms: _525  and  _526
REMARK  219  A    between atoms: _525  and  _528
REMARK  220  A    between atoms: _528  and  _529
REMARK  221  A    between atoms: _532  and  _534
REMARK  222  A    between atoms: _534  and  _535
REMARK  223  A    between atoms: _534  and  _537
REMARK  224  A    between atoms: _537  and  _538
REMARK  225  A    between atoms: _541  and  _543
REMARK  226  A    between atoms: _543  and  _544
REMARK  227  A    between atoms: _546  and  _548
REMARK  228  A    between atoms: _548  and  _549
REMARK  229  A    between atoms: _548  and  _551
REMARK  230  A    between atoms: _551  and  _552
REMARK  231  A    between atoms: _552  and  _553
REMARK  232  A    between atoms: _553  and  _554
REMARK  233  A    between atoms: _563  and  _565
REMARK  234  A    between atoms: _565  and  _566
REMARK  235  A    between atoms: _565  and  _568
REMARK  236  A    between atoms: _568  and  _569
REMARK                            x       y       z     vdW  Elec       q    Type
REMARK                         _______ _______ _______ _____ _____    ______ ____
ROOT
ATOM      1  O   HOH     1      13.726  15.408  11.217  0.00  0.00    +0.000 OA
ENDROOT
TORSDOF 0
REMARK  Name = ../refined-set-2016/2cen/2cen_pocket.pdb
REMARK  236 active torsions:
REMARK  status: ('A' for Active; 'I' for Inactive)
REMARK    1  A    between atoms: _1  and  _3
REMARK    2  A    between atoms: _3  and  _4
REMARK    3  A    between atoms: _3  and  _6
REMARK    4  A    between atoms: _6  and  _7
REMARK    5  A    between atoms: _7  and  _8
REMARK    6  A    between atoms: _8  and  _9
REMARK    7  A    between atoms: _18  and  _20
REMARK    8  A    between atoms: _20  and  _21
REMARK    9  A    between atoms: _20  and  _23
REMARK   10  A    between atoms: _23  and  _24
REMARK   11  A    between atoms: _27  and  _29
REMARK   12  A    between atoms: _29  and  _30
REMARK   13  A    between atoms: _29  and  _32
REMARK   14  A    between atoms: _32  and  _33
REMARK   15  A    between atoms: _36  and  _38
REMARK   16  A    between atoms: _38  and  _39
REMARK   17  A    between atoms: _38  and  _41
REMARK   18  A    between atoms: _41  and  _42
REMARK   19  A    between atoms: _45  and  _47
REMARK   20  A    between atoms: _47  and  _48
REMARK   21  A    between atoms: _47  and  _50
REMARK   22  A    between atoms: _50  and  _51
REMARK   23  A    between atoms: _54  and  _56
REMARK   24  A    between atoms: _56  and  _57
REMARK   25  A    between atoms: _56  and  _59
REMARK   26  A    between atoms: _59  and  _60
REMARK   27  A    between atoms: _63  and  _65
REMARK   28  A    between atoms: _65  and  _66
REMARK   29  A    between atoms: _68  and  _70
REMARK   30  A    between atoms: _70  and  _71
REMARK   31  A    between atoms: _74  and  _76
REMARK   32  A    between atoms: _76  and  _77
REMARK   33  A    between atoms: _76  and  _79
REMARK   34  A    between atoms: _79  and  _80
REMARK   35  A    between atoms: _83  and  _85
REMARK   36  A    between atoms: _85  and  _86
REMARK   37  A    between atoms: _85  and  _88
REMARK   38  A    between atoms: _88  and  _89
REMARK   39  A    between atoms: _92  and  _94
REMARK   40  A    between atoms: _94  and  _95
REMARK   41  A    between atoms: _94  and  _97
REMARK   42  A    between atoms: _97  and  _98
REMARK   43  A    between atoms: _101  and  _103
REMARK   44  A    between atoms: _103  and  _104
REMARK   45  A    between atoms: _103  and  _106
REMARK   46  A    between atoms: _109  and  _111
REMARK   47  A    between atoms: _111  and  _112
REMARK   48  A    between atoms: _111  and  _114
REMARK   49  A    between atoms: _114  and  _115
REMARK   50  A    between atoms: _115  and  _116
REMARK   51  A    between atoms: _116  and  _117
REMARK   52  A    between atoms: _117  and  _118
REMARK   53  A    between atoms: _122  and  _124
REMARK   54  A    between atoms: _124  and  _125
REMARK   55  A    between atoms: _124  and  _127
REMARK   56  A    between atoms: _127  and  _128
REMARK   57  A    between atoms: _128  and  _129
REMARK   58  A    between atoms: _131  and  _133
REMARK   59  A    between atoms: _133  and  _134
REMARK   60  A    between atoms: _133  and  _136
REMARK   61  A    between atoms: _136  and  _137
REMARK   62  A    between atoms: _140  and  _142
REMARK   63  A    between atoms: _142  and  _143
REMARK   64  A    between atoms: _145  and  _147
REMARK   65  A    between atoms: _147  and  _148
REMARK   66  A    between atoms: _150  and  _152
REMARK   67  A    between atoms: _152  and  _153
REMARK   68  A    between atoms: _152  and  _155
REMARK   69  A    between atoms: _155  and  _156
REMARK   70  A    between atoms: _159  and  _161
REMARK   71  A    between atoms: _161  and  _162
REMARK   72  A    between atoms: _164  and  _166
REMARK   73  A    between atoms: _166  and  _167
REMARK   74  A    between atoms: _169  and  _171
REMARK   75  A    between atoms: _171  and  _172
REMARK   76  A    between atoms: _171  and  _174
REMARK   77  A    between atoms: _174  and  _175
REMARK   78  A    between atoms: _181  and  _183
REMARK   79  A    between atoms: _183  and  _184
REMARK   80  A    between atoms: _183  and  _186
REMARK   81  A    between atoms: _186  and  _187
REMARK   82  A    between atoms: _190  and  _192
REMARK   83  A    between atoms: _192  and  _193
REMARK   84  A    between atoms: _192  and  _195
REMARK   85  A    between atoms: _198  and  _200
REMARK   86  A    between atoms: _200  and  _201
REMARK   87  A    between atoms: _200  and  _203
REMARK   88  A    between atoms: _203  and  _204
REMARK   89  A    between atoms: _207  and  _209
REMARK   90  A    between atoms: _209  and  _210
REMARK   91  A    between atoms: _209  and  _212
REMARK   92  A    between atoms: _212  and  _213
REMARK   93  A    between atoms: _217  and  _218
REMARK   94  A    between atoms: _223  and  _225
REMARK   95  A    between atoms: _225  and  _226
REMARK   96  A    between atoms: _225  and  _228
REMARK   97  A    between atoms: _231  and  _233
REMARK   98  A    between atoms: _233  and  _234
REMARK   99  A    between atoms: _233  and  _236
REMARK  100  A    between atoms: _236  and  _237
REMARK  101  A    between atoms: _242  and  _244
REMARK  102  A    between atoms: _244  and  _245
REMARK  103  A    between atoms: _244  and  _247
REMARK  104  A    between atoms: _247  and  _248
REMARK  105  A    between atoms: _251  and  _253
REMARK  106  A    between atoms: _253  and  _254
REMARK  107  A    between atoms: _253  and  _256
REMARK  108  A    between atoms: _256  and  _257
REMARK  109  A    between atoms: _260  and  _262
REMARK  110  A    between atoms: _262  and  _263
REMARK  111  A    between atoms: _265  and  _267
REMARK  112  A    between atoms: _267  and  _268
REMARK  113  A    between atoms: _267  and  _270
REMARK  114  A    between atoms: _270  and  _271
REMARK  115  A    between atoms: _271  and  _272
REMARK  116  A    between atoms: _272  and  _273
REMARK  117  A    between atoms: _282  and  _284
REMARK  118  A    between atoms: _284  and  _285
REMARK  119  A    between atoms: _284  and  _287
REMARK  120  A    between atoms: _287  and  _288
REMARK  121  A    between atoms: _288  and  _289
REMARK  122  A    between atoms: _289  and  _290
REMARK  123  A    between atoms: _299  and  _301
REMARK  124  A    between atoms: _301  and  _302
REMARK  125  A    between atoms: _301  and  _304
REMARK  126  A    between atoms: _304  and  _305
REMARK  127  A    between atoms: _308  and  _310
REMARK  128  A    between atoms: _310  and  _311
REMARK  129  A    between atoms: _310  and  _313
REMARK  130  A    between atoms: _313  and  _314
REMARK  131  A    between atoms: _317  and  _319
REMARK  132  A    between atoms: _319  and  _320
REMARK  133  A    between atoms: _319  and  _322
REMARK  134  A    between atoms: _322  and  _323
REMARK  135  A    between atoms: _326  and  _328
REMARK  136  A    between atoms: _328  and  _329
REMARK  137  A    between atoms: _328  and  _331
REMARK  138  A    between atoms: _331  and  _332
REMARK  139  A    between atoms: _335  and  _337
REMARK  140  A    between atoms: _337  and  _338
REMARK  141  A    between atoms: _340  and  _342
REMARK  142  A    between atoms: _342  and  _343
REMARK  143  A    between atoms: _346  and  _348
REMARK  144  A    between atoms: _348  and  _349
REMARK  145  A    between atoms: _348  and  _351
REMARK  146  A    between atoms: _351  and  _352
REMARK  147  A    between atoms: _355  and  _357
REMARK  148  A    between atoms: _357  and  _358
REMARK  149  A    between atoms: _357  and  _360
REMARK  150  A    between atoms: _360  and  _361
REMARK  151  A    between atoms: _364  and  _366
REMARK  152  A    between atoms: _366  and  _367
REMARK  153  A    between atoms: _366  and  _369
REMARK  154  A    between atoms: _369  and  _370
REMARK  155  A    between atoms: _373  and  _375
REMARK  156  A    between atoms: _375  and  _376
REMARK  157  A    between atoms: _375  and  _378
REMARK  158  A    between atoms: _381  and  _383
REMARK  159  A    between atoms: _383  and  _384
REMARK  160  A    between atoms: _383  and  _386
REMARK  161  A    between atoms: _386  and  _387
REMARK  162  A    between atoms: _390  and  _392
REMARK  163  A    between atoms: _392  and  _393
REMARK  164  A    between atoms: _392  and  _395
REMARK  165  A    between atoms: _395  and  _396
REMARK  166  A    between atoms: _396  and  _397
REMARK  167  A    between atoms: _397  and  _398
REMARK  168  A    between atoms: _398  and  _399
REMARK  169  A    between atoms: _403  and  _405
REMARK  170  A    between atoms: _405  and  _406
REMARK  171  A    between atoms: _405  and  _408
REMARK  172  A    between atoms: _408  and  _409
REMARK  173  A    between atoms: _409  and  _410
REMARK  174  A    between atoms: _412  and  _414
REMARK  175  A    between atoms: _414  and  _415
REMARK  176  A    between atoms: _414  and  _417
REMARK  177  A    between atoms: _417  and  _418
REMARK  178  A    between atoms: _421  and  _423
REMARK  179  A    between atoms: _423  and  _424
REMARK  180  A    between atoms: _426  and  _428
REMARK  181  A    between atoms: _428  and  _429
REMARK  182  A    between atoms: _431  and  _433
REMARK  183  A    between atoms: _433  and  _434
REMARK  184  A    between atoms: _433  and  _436
REMARK  185  A    between atoms: _436  and  _437
REMARK  186  A    between atoms: _440  and  _442
REMARK  187  A    between atoms: _442  and  _443
REMARK  188  A    between atoms: _445  and  _447
REMARK  189  A    between atoms: _447  and  _448
REMARK  190  A    between atoms: _450  and  _452
REMARK  191  A    between atoms: _452  and  _453
REMARK  192  A    between atoms: _452  and  _455
REMARK  193  A    between atoms: _455  and  _456
REMARK  194  A    between atoms: _462  and  _464
REMARK  195  A    between atoms: _464  and  _465
REMARK  196  A    between atoms: _464  and  _467
REMARK  197  A    between atoms: _467  and  _468
REMARK  198  A    between atoms: _471  and  _473
REMARK  199  A    between atoms: _473  and  _474
REMARK  200  A    between atoms: _473  and  _476
REMARK  201  A    between atoms: _479  and  _481
REMARK  202  A    between atoms: _481  and  _482
REMARK  203  A    between atoms: _481  and  _484
REMARK  204  A    between atoms: _484  and  _485
REMARK  205  A    between atoms: _488  and  _490
REMARK  206  A    between atoms: _490  and  _491
REMARK  207  A    between atoms: _490  and  _493
REMARK  208  A    between atoms: _493  and  _494
REMARK  209  A    between atoms: _498  and  _499
REMARK  210  A    between atoms: _504  and  _506
REMARK  211  A    between atoms: _506  and  _507
REMARK  212  A    between atoms: _506  and  _509
REMARK  213  A    between atoms: _512  and  _514
REMARK  214  A    between atoms: _514  and  _515
REMARK  215  A    between atoms: _514  and  _517
REMARK  216  A    between atoms: _517  and  _518
REMARK  217  A    between atoms: _523  and  _525
REMARK  218  A    between atoms: _525  and  _526
REMARK  219  A    between atoms: _525  and  _528
REMARK  220  A    between atoms: _528  and  _529
REMARK  221  A    between atoms: _532  and  _534
REMARK  222  A    between atoms: _534  and  _535
REMARK  223  A    between atoms: _534  and  _537
REMARK  224  A    between atoms: _537  and  _538
REMARK  225  A    between atoms: _541  and  _543
REMARK  226  A    between atoms: _543  and  _544
REMARK  227  A    between atoms: _546  and  _548
REMARK  228  A    between atoms: _548  and  _549
REMARK  229  A    between atoms: _548  and  _551
REMARK  230  A    between atoms: _551  and  _552
REMARK  231  A    between atoms: _552  and  _553
REMARK  232  A    between atoms: _553  and  _554
REMARK  233  A    between atoms: _563  and  _565
REMARK  234  A    between atoms: _565  and  _566
REMARK  235  A    between atoms: _565  and  _568
REMARK  236  A    between atoms: _568  and  _569
REMARK                            x       y       z     vdW  Elec       q    Type
REMARK                         _______ _______ _______ _____ _____    ______ ____
ROOT
ATOM      1  O   HOH     1      20.287  16.000  -3.755  0.00  0.00    +0.000 OA
ENDROOT
TORSDOF 0
REMARK  Name = ../refined-set-2016/2cen/2cen_pocket.pdb
REMARK  236 active torsions:
REMARK  status: ('A' for Active; 'I' for Inactive)
REMARK    1  A    between atoms: _1  and  _3
REMARK    2  A    between atoms: _3  and  _4
REMARK    3  A    between atoms: _3  and  _6
REMARK    4  A    between atoms: _6  and  _7
REMARK    5  A    between atoms: _7  and  _8
REMARK    6  A    between atoms: _8  and  _9
REMARK    7  A    between atoms: _18  and  _20
REMARK    8  A    between atoms: _20  and  _21
REMARK    9  A    between atoms: _20  and  _23
REMARK   10  A    between atoms: _23  and  _24
REMARK   11  A    between atoms: _27  and  _29
REMARK   12  A    between atoms: _29  and  _30
REMARK   13  A    between atoms: _29  and  _32
REMARK   14  A    between atoms: _32  and  _33
REMARK   15  A    between atoms: _36  and  _38
REMARK   16  A    between atoms: _38  and  _39
REMARK   17  A    between atoms: _38  and  _41
REMARK   18  A    between atoms: _41  and  _42
REMARK   19  A    between atoms: _45  and  _47
REMARK   20  A    between atoms: _47  and  _48
REMARK   21  A    between atoms: _47  and  _50
REMARK   22  A    between atoms: _50  and  _51
REMARK   23  A    between atoms: _54  and  _56
REMARK   24  A    between atoms: _56  and  _57
REMARK   25  A    between atoms: _56  and  _59
REMARK   26  A    between atoms: _59  and  _60
REMARK   27  A    between atoms: _63  and  _65
REMARK   28  A    between atoms: _65  and  _66
REMARK   29  A    between atoms: _68  and  _70
REMARK   30  A    between atoms: _70  and  _71
REMARK   31  A    between atoms: _74  and  _76
REMARK   32  A    between atoms: _76  and  _77
REMARK   33  A    between atoms: _76  and  _79
REMARK   34  A    between atoms: _79  and  _80
REMARK   35  A    between atoms: _83  and  _85
REMARK   36  A    between atoms: _85  and  _86
REMARK   37  A    between atoms: _85  and  _88
REMARK   38  A    between atoms: _88  and  _89
REMARK   39  A    between atoms: _92  and  _94
REMARK   40  A    between atoms: _94  and  _95
REMARK   41  A    between atoms: _94  and  _97
REMARK   42  A    between atoms: _97  and  _98
REMARK   43  A    between atoms: _101  and  _103
REMARK   44  A    between atoms: _103  and  _104
REMARK   45  A    between atoms: _103  and  _106
REMARK   46  A    between atoms: _109  and  _111
REMARK   47  A    between atoms: _111  and  _112
REMARK   48  A    between atoms: _111  and  _114
REMARK   49  A    between atoms: _114  and  _115
REMARK   50  A    between atoms: _115  and  _116
REMARK   51  A    between atoms: _116  and  _117
REMARK   52  A    between atoms: _117  and  _118
REMARK   53  A    between atoms: _122  and  _124
REMARK   54  A    between atoms: _124  and  _125
REMARK   55  A    between atoms: _124  and  _127
REMARK   56  A    between atoms: _127  and  _128
REMARK   57  A    between atoms: _128  and  _129
REMARK   58  A    between atoms: _131  and  _133
REMARK   59  A    between atoms: _133  and  _134
REMARK   60  A    between atoms: _133  and  _136
REMARK   61  A    between atoms: _136  and  _137
REMARK   62  A    between atoms: _140  and  _142
REMARK   63  A    between atoms: _142  and  _143
REMARK   64  A    between atoms: _145  and  _147
REMARK   65  A    between atoms: _147  and  _148
REMARK   66  A    between atoms: _150  and  _152
REMARK   67  A    between atoms: _152  and  _153
REMARK   68  A    between atoms: _152  and  _155
REMARK   69  A    between atoms: _155  and  _156
REMARK   70  A    between atoms: _159  and  _161
REMARK   71  A    between atoms: _161  and  _162
REMARK   72  A    between atoms: _164  and  _166
REMARK   73  A    between atoms: _166  and  _167
REMARK   74  A    between atoms: _169  and  _171
REMARK   75  A    between atoms: _171  and  _172
REMARK   76  A    between atoms: _171  and  _174
REMARK   77  A    between atoms: _174  and  _175
REMARK   78  A    between atoms: _181  and  _183
REMARK   79  A    between atoms: _183  and  _184
REMARK   80  A    between atoms: _183  and  _186
REMARK   81  A    between atoms: _186  and  _187
REMARK   82  A    between atoms: _190  and  _192
REMARK   83  A    between atoms: _192  and  _193
REMARK   84  A    between atoms: _192  and  _195
REMARK   85  A    between atoms: _198  and  _200
REMARK   86  A    between atoms: _200  and  _201
REMARK   87  A    between atoms: _200  and  _203
REMARK   88  A    between atoms: _203  and  _204
REMARK   89  A    between atoms: _207  and  _209
REMARK   90  A    between atoms: _209  and  _210
REMARK   91  A    between atoms: _209  and  _212
REMARK   92  A    between atoms: _212  and  _213
REMARK   93  A    between atoms: _217  and  _218
REMARK   94  A    between atoms: _223  and  _225
REMARK   95  A    between atoms: _225  and  _226
REMARK   96  A    between atoms: _225  and  _228
REMARK   97  A    between atoms: _231  and  _233
REMARK   98  A    between atoms: _233  and  _234
REMARK   99  A    between atoms: _233  and  _236
REMARK  100  A    between atoms: _236  and  _237
REMARK  101  A    between atoms: _242  and  _244
REMARK  102  A    between atoms: _244  and  _245
REMARK  103  A    between atoms: _244  and  _247
REMARK  104  A    between atoms: _247  and  _248
REMARK  105  A    between atoms: _251  and  _253
REMARK  106  A    between atoms: _253  and  _254
REMARK  107  A    between atoms: _253  and  _256
REMARK  108  A    between atoms: _256  and  _257
REMARK  109  A    between atoms: _260  and  _262
REMARK  110  A    between atoms: _262  and  _263
REMARK  111  A    between atoms: _265  and  _267
REMARK  112  A    between atoms: _267  and  _268
REMARK  113  A    between atoms: _267  and  _270
REMARK  114  A    between atoms: _270  and  _271
REMARK  115  A    between atoms: _271  and  _272
REMARK  116  A    between atoms: _272  and  _273
REMARK  117  A    between atoms: _282  and  _284
REMARK  118  A    between atoms: _284  and  _285
REMARK  119  A    between atoms: _284  and  _287
REMARK  120  A    between atoms: _287  and  _288
REMARK  121  A    between atoms: _288  and  _289
REMARK  122  A    between atoms: _289  and  _290
REMARK  123  A    between atoms: _299  and  _301
REMARK  124  A    between atoms: _301  and  _302
REMARK  125  A    between atoms: _301  and  _304
REMARK  126  A    between atoms: _304  and  _305
REMARK  127  A    between atoms: _308  and  _310
REMARK  128  A    between atoms: _310  and  _311
REMARK  129  A    between atoms: _310  and  _313
REMARK  130  A    between atoms: _313  and  _314
REMARK  131  A    between atoms: _317  and  _319
REMARK  132  A    between atoms: _319  and  _320
REMARK  133  A    between atoms: _319  and  _322
REMARK  134  A    between atoms: _322  and  _323
REMARK  135  A    between atoms: _326  and  _328
REMARK  136  A    between atoms: _328  and  _329
REMARK  137  A    between atoms: _328  and  _331
REMARK  138  A    between atoms: _331  and  _332
REMARK  139  A    between atoms: _335  and  _337
REMARK  140  A    between atoms: _337  and  _338
REMARK  141  A    between atoms: _340  and  _342
REMARK  142  A    between atoms: _342  and  _343
REMARK  143  A    between atoms: _346  and  _348
REMARK  144  A    between atoms: _348  and  _349
REMARK  145  A    between atoms: _348  and  _351
REMARK  146  A    between atoms: _351  and  _352
REMARK  147  A    between atoms: _355  and  _357
REMARK  148  A    between atoms: _357  and  _358
REMARK  149  A    between atoms: _357  and  _360
REMARK  150  A    between atoms: _360  and  _361
REMARK  151  A    between atoms: _364  and  _366
REMARK  152  A    between atoms: _366  and  _367
REMARK  153  A    between atoms: _366  and  _369
REMARK  154  A    between atoms: _369  and  _370
REMARK  155  A    between atoms: _373  and  _375
REMARK  156  A    between atoms: _375  and  _376
REMARK  157  A    between atoms: _375  and  _378
REMARK  158  A    between atoms: _381  and  _383
REMARK  159  A    between atoms: _383  and  _384
REMARK  160  A    between atoms: _383  and  _386
REMARK  161  A    between atoms: _386  and  _387
REMARK  162  A    between atoms: _390  and  _392
REMARK  163  A    between atoms: _392  and  _393
REMARK  164  A    between atoms: _392  and  _395
REMARK  165  A    between atoms: _395  and  _396
REMARK  166  A    between atoms: _396  and  _397
REMARK  167  A    between atoms: _397  and  _398
REMARK  168  A    between atoms: _398  and  _399
REMARK  169  A    between atoms: _403  and  _405
REMARK  170  A    between atoms: _405  and  _406
REMARK  171  A    between atoms: _405  and  _408
REMARK  172  A    between atoms: _408  and  _409
REMARK  173  A    between atoms: _409  and  _410
REMARK  174  A    between atoms: _412  and  _414
REMARK  175  A    between atoms: _414  and  _415
REMARK  176  A    between atoms: _414  and  _417
REMARK  177  A    between atoms: _417  and  _418
REMARK  178  A    between atoms: _421  and  _423
REMARK  179  A    between atoms: _423  and  _424
REMARK  180  A    between atoms: _426  and  _428
REMARK  181  A    between atoms: _428  and  _429
REMARK  182  A    between atoms: _431  and  _433
REMARK  183  A    between atoms: _433  and  _434
REMARK  184  A    between atoms: _433  and  _436
REMARK  185  A    between atoms: _436  and  _437
REMARK  186  A    between atoms: _440  and  _442
REMARK  187  A    between atoms: _442  and  _443
REMARK  188  A    between atoms: _445  and  _447
REMARK  189  A    between atoms: _447  and  _448
REMARK  190  A    between atoms: _450  and  _452
REMARK  191  A    between atoms: _452  and  _453
REMARK  192  A    between atoms: _452  and  _455
REMARK  193  A    between atoms: _455  and  _456
REMARK  194  A    between atoms: _462  and  _464
REMARK  195  A    between atoms: _464  and  _465
REMARK  196  A    between atoms: _464  and  _467
REMARK  197  A    between atoms: _467  and  _468
REMARK  198  A    between atoms: _471  and  _473
REMARK  199  A    between atoms: _473  and  _474
REMARK  200  A    between atoms: _473  and  _476
REMARK  201  A    between atoms: _479  and  _481
REMARK  202  A    between atoms: _481  and  _482
REMARK  203  A    between atoms: _481  and  _484
REMARK  204  A    between atoms: _484  and  _485
REMARK  205  A    between atoms: _488  and  _490
REMARK  206  A    between atoms: _490  and  _491
REMARK  207  A    between atoms: _490  and  _493
REMARK  208  A    between atoms: _493  and  _494
REMARK  209  A    between atoms: _498  and  _499
REMARK  210  A    between atoms: _504  and  _506
REMARK  211  A    between atoms: _506  and  _507
REMARK  212  A    between atoms: _506  and  _509
REMARK  213  A    between atoms: _512  and  _514
REMARK  214  A    between atoms: _514  and  _515
REMARK  215  A    between atoms: _514  and  _517
REMARK  216  A    between atoms: _517  and  _518
REMARK  217  A    between atoms: _523  and  _525
REMARK  218  A    between atoms: _525  and  _526
REMARK  219  A    between atoms: _525  and  _528
REMARK  220  A    between atoms: _528  and  _529
REMARK  221  A    between atoms: _532  and  _534
REMARK  222  A    between atoms: _534  and  _535
REMARK  223  A    between atoms: _534  and  _537
REMARK  224  A    between atoms: _537  and  _538
REMARK  225  A    between atoms: _541  and  _543
REMARK  226  A    between atoms: _543  and  _544
REMARK  227  A    between atoms: _546  and  _548
REMARK  228  A    between atoms: _548  and  _549
REMARK  229  A    between atoms: _548  and  _551
REMARK  230  A    between atoms: _551  and  _552
REMARK  231  A    between atoms: _552  and  _553
REMARK  232  A    between atoms: _553  and  _554
REMARK  233  A    between atoms: _563  and  _565
REMARK  234  A    between atoms: _565  and  _566
REMARK  235  A    between atoms: _565  and  _568
REMARK  236  A    between atoms: _568  and  _569
REMARK                            x       y       z     vdW  Elec       q    Type
REMARK                         _______ _______ _______ _____ _____    ______ ____
ROOT
ATOM      1  O   HOH     1       2.286  21.994  -0.856  0.00  0.00    +0.000 OA
ENDROOT
TORSDOF 0
REMARK  Name = ../refined-set-2016/2cen/2cen_pocket.pdb
REMARK  236 active torsions:
REMARK  status: ('A' for Active; 'I' for Inactive)
REMARK    1  A    between atoms: _1  and  _3
REMARK    2  A    between atoms: _3  and  _4
REMARK    3  A    between atoms: _3  and  _6
REMARK    4  A    between atoms: _6  and  _7
REMARK    5  A    between atoms: _7  and  _8
REMARK    6  A    between atoms: _8  and  _9
REMARK    7  A    between atoms: _18  and  _20
REMARK    8  A    between atoms: _20  and  _21
REMARK    9  A    between atoms: _20  and  _23
REMARK   10  A    between atoms: _23  and  _24
REMARK   11  A    between atoms: _27  and  _29
REMARK   12  A    between atoms: _29  and  _30
REMARK   13  A    between atoms: _29  and  _32
REMARK   14  A    between atoms: _32  and  _33
REMARK   15  A    between atoms: _36  and  _38
REMARK   16  A    between atoms: _38  and  _39
REMARK   17  A    between atoms: _38  and  _41
REMARK   18  A    between atoms: _41  and  _42
REMARK   19  A    between atoms: _45  and  _47
REMARK   20  A    between atoms: _47  and  _48
REMARK   21  A    between atoms: _47  and  _50
REMARK   22  A    between atoms: _50  and  _51
REMARK   23  A    between atoms: _54  and  _56
REMARK   24  A    between atoms: _56  and  _57
REMARK   25  A    between atoms: _56  and  _59
REMARK   26  A    between atoms: _59  and  _60
REMARK   27  A    between atoms: _63  and  _65
REMARK   28  A    between atoms: _65  and  _66
REMARK   29  A    between atoms: _68  and  _70
REMARK   30  A    between atoms: _70  and  _71
REMARK   31  A    between atoms: _74  and  _76
REMARK   32  A    between atoms: _76  and  _77
REMARK   33  A    between atoms: _76  and  _79
REMARK   34  A    between atoms: _79  and  _80
REMARK   35  A    between atoms: _83  and  _85
REMARK   36  A    between atoms: _85  and  _86
REMARK   37  A    between atoms: _85  and  _88
REMARK   38  A    between atoms: _88  and  _89
REMARK   39  A    between atoms: _92  and  _94
REMARK   40  A    between atoms: _94  and  _95
REMARK   41  A    between atoms: _94  and  _97
REMARK   42  A    between atoms: _97  and  _98
REMARK   43  A    between atoms: _101  and  _103
REMARK   44  A    between atoms: _103  and  _104
REMARK   45  A    between atoms: _103  and  _106
REMARK   46  A    between atoms: _109  and  _111
REMARK   47  A    between atoms: _111  and  _112
REMARK   48  A    between atoms: _111  and  _114
REMARK   49  A    between atoms: _114  and  _115
REMARK   50  A    between atoms: _115  and  _116
REMARK   51  A    between atoms: _116  and  _117
REMARK   52  A    between atoms: _117  and  _118
REMARK   53  A    between atoms: _122  and  _124
REMARK   54  A    between atoms: _124  and  _125
REMARK   55  A    between atoms: _124  and  _127
REMARK   56  A    between atoms: _127  and  _128
REMARK   57  A    between atoms: _128  and  _129
REMARK   58  A    between atoms: _131  and  _133
REMARK   59  A    between atoms: _133  and  _134
REMARK   60  A    between atoms: _133  and  _136
REMARK   61  A    between atoms: _136  and  _137
REMARK   62  A    between atoms: _140  and  _142
REMARK   63  A    between atoms: _142  and  _143
REMARK   64  A    between atoms: _145  and  _147
REMARK   65  A    between atoms: _147  and  _148
REMARK   66  A    between atoms: _150  and  _152
REMARK   67  A    between atoms: _152  and  _153
REMARK   68  A    between atoms: _152  and  _155
REMARK   69  A    between atoms: _155  and  _156
REMARK   70  A    between atoms: _159  and  _161
REMARK   71  A    between atoms: _161  and  _162
REMARK   72  A    between atoms: _164  and  _166
REMARK   73  A    between atoms: _166  and  _167
REMARK   74  A    between atoms: _169  and  _171
REMARK   75  A    between atoms: _171  and  _172
REMARK   76  A    between atoms: _171  and  _174
REMARK   77  A    between atoms: _174  and  _175
REMARK   78  A    between atoms: _181  and  _183
REMARK   79  A    between atoms: _183  and  _184
REMARK   80  A    between atoms: _183  and  _186
REMARK   81  A    between atoms: _186  and  _187
REMARK   82  A    between atoms: _190  and  _192
REMARK   83  A    between atoms: _192  and  _193
REMARK   84  A    between atoms: _192  and  _195
REMARK   85  A    between atoms: _198  and  _200
REMARK   86  A    between atoms: _200  and  _201
REMARK   87  A    between atoms: _200  and  _203
REMARK   88  A    between atoms: _203  and  _204
REMARK   89  A    between atoms: _207  and  _209
REMARK   90  A    between atoms: _209  and  _210
REMARK   91  A    between atoms: _209  and  _212
REMARK   92  A    between atoms: _212  and  _213
REMARK   93  A    between atoms: _217  and  _218
REMARK   94  A    between atoms: _223  and  _225
REMARK   95  A    between atoms: _225  and  _226
REMARK   96  A    between atoms: _225  and  _228
REMARK   97  A    between atoms: _231  and  _233
REMARK   98  A    between atoms: _233  and  _234
REMARK   99  A    between atoms: _233  and  _236
REMARK  100  A    between atoms: _236  and  _237
REMARK  101  A    between atoms: _242  and  _244
REMARK  102  A    between atoms: _244  and  _245
REMARK  103  A    between atoms: _244  and  _247
REMARK  104  A    between atoms: _247  and  _248
REMARK  105  A    between atoms: _251  and  _253
REMARK  106  A    between atoms: _253  and  _254
REMARK  107  A    between atoms: _253  and  _256
REMARK  108  A    between atoms: _256  and  _257
REMARK  109  A    between atoms: _260  and  _262
REMARK  110  A    between atoms: _262  and  _263
REMARK  111  A    between atoms: _265  and  _267
REMARK  112  A    between atoms: _267  and  _268
REMARK  113  A    between atoms: _267  and  _270
REMARK  114  A    between atoms: _270  and  _271
REMARK  115  A    between atoms: _271  and  _272
REMARK  116  A    between atoms: _272  and  _273
REMARK  117  A    between atoms: _282  and  _284
REMARK  118  A    between atoms: _284  and  _285
REMARK  119  A    between atoms: _284  and  _287
REMARK  120  A    between atoms: _287  and  _288
REMARK  121  A    between atoms: _288  and  _289
REMARK  122  A    between atoms: _289  and  _290
REMARK  123  A    between atoms: _299  and  _301
REMARK  124  A    between atoms: _301  and  _302
REMARK  125  A    between atoms: _301  and  _304
REMARK  126  A    between atoms: _304  and  _305
REMARK  127  A    between atoms: _308  and  _310
REMARK  128  A    between atoms: _310  and  _311
REMARK  129  A    between atoms: _310  and  _313
REMARK  130  A    between atoms: _313  and  _314
REMARK  131  A    between atoms: _317  and  _319
REMARK  132  A    between atoms: _319  and  _320
REMARK  133  A    between atoms: _319  and  _322
REMARK  134  A    between atoms: _322  and  _323
REMARK  135  A    between atoms: _326  and  _328
REMARK  136  A    between atoms: _328  and  _329
REMARK  137  A    between atoms: _328  and  _331
REMARK  138  A    between atoms: _331  and  _332
REMARK  139  A    between atoms: _335  and  _337
REMARK  140  A    between atoms: _337  and  _338
REMARK  141  A    between atoms: _340  and  _342
REMARK  142  A    between atoms: _342  and  _343
REMARK  143  A    between atoms: _346  and  _348
REMARK  144  A    between atoms: _348  and  _349
REMARK  145  A    between atoms: _348  and  _351
REMARK  146  A    between atoms: _351  and  _352
REMARK  147  A    between atoms: _355  and  _357
REMARK  148  A    between atoms: _357  and  _358
REMARK  149  A    between atoms: _357  and  _360
REMARK  150  A    between atoms: _360  and  _361
REMARK  151  A    between atoms: _364  and  _366
REMARK  152  A    between atoms: _366  and  _367
REMARK  153  A    between atoms: _366  and  _369
REMARK  154  A    between atoms: _369  and  _370
REMARK  155  A    between atoms: _373  and  _375
REMARK  156  A    between atoms: _375  and  _376
REMARK  157  A    between atoms: _375  and  _378
REMARK  158  A    between atoms: _381  and  _383
REMARK  159  A    between atoms: _383  and  _384
REMARK  160  A    between atoms: _383  and  _386
REMARK  161  A    between atoms: _386  and  _387
REMARK  162  A    between atoms: _390  and  _392
REMARK  163  A    between atoms: _392  and  _393
REMARK  164  A    between atoms: _392  and  _395
REMARK  165  A    between atoms: _395  and  _396
REMARK  166  A    between atoms: _396  and  _397
REMARK  167  A    between atoms: _397  and  _398
REMARK  168  A    between atoms: _398  and  _399
REMARK  169  A    between atoms: _403  and  _405
REMARK  170  A    between atoms: _405  and  _406
REMARK  171  A    between atoms: _405  and  _408
REMARK  172  A    between atoms: _408  and  _409
REMARK  173  A    between atoms: _409  and  _410
REMARK  174  A    between atoms: _412  and  _414
REMARK  175  A    between atoms: _414  and  _415
REMARK  176  A    between atoms: _414  and  _417
REMARK  177  A    between atoms: _417  and  _418
REMARK  178  A    between atoms: _421  and  _423
REMARK  179  A    between atoms: _423  and  _424
REMARK  180  A    between atoms: _426  and  _428
REMARK  181  A    between atoms: _428  and  _429
REMARK  182  A    between atoms: _431  and  _433
REMARK  183  A    between atoms: _433  and  _434
REMARK  184  A    between atoms: _433  and  _436
REMARK  185  A    between atoms: _436  and  _437
REMARK  186  A    between atoms: _440  and  _442
REMARK  187  A    between atoms: _442  and  _443
REMARK  188  A    between atoms: _445  and  _447
REMARK  189  A    between atoms: _447  and  _448
REMARK  190  A    between atoms: _450  and  _452
REMARK  191  A    between atoms: _452  and  _453
REMARK  192  A    between atoms: _452  and  _455
REMARK  193  A    between atoms: _455  and  _456
REMARK  194  A    between atoms: _462  and  _464
REMARK  195  A    between atoms: _464  and  _465
REMARK  196  A    between atoms: _464  and  _467
REMARK  197  A    between atoms: _467  and  _468
REMARK  198  A    between atoms: _471  and  _473
REMARK  199  A    between atoms: _473  and  _474
REMARK  200  A    between atoms: _473  and  _476
REMARK  201  A    between atoms: _479  and  _481
REMARK  202  A    between atoms: _481  and  _482
REMARK  203  A    between atoms: _481  and  _484
REMARK  204  A    between atoms: _484  and  _485
REMARK  205  A    between atoms: _488  and  _490
REMARK  206  A    between atoms: _490  and  _491
REMARK  207  A    between atoms: _490  and  _493
REMARK  208  A    between atoms: _493  and  _494
REMARK  209  A    between atoms: _498  and  _499
REMARK  210  A    between atoms: _504  and  _506
REMARK  211  A    between atoms: _506  and  _507
REMARK  212  A    between atoms: _506  and  _509
REMARK  213  A    between atoms: _512  and  _514
REMARK  214  A    between atoms: _514  and  _515
REMARK  215  A    between atoms: _514  and  _517
REMARK  216  A    between atoms: _517  and  _518
REMARK  217  A    between atoms: _523  and  _525
REMARK  218  A    between atoms: _525  and  _526
REMARK  219  A    between atoms: _525  and  _528
REMARK  220  A    between atoms: _528  and  _529
REMARK  221  A    between atoms: _532  and  _534
REMARK  222  A    between atoms: _534  and  _535
REMARK  223  A    between atoms: _534  and  _537
REMARK  224  A    between atoms: _537  and  _538
REMARK  225  A    between atoms: _541  and  _543
REMARK  226  A    between atoms: _543  and  _544
REMARK  227  A    between atoms: _546  and  _548
REMARK  228  A    between atoms: _548  and  _549
REMARK  229  A    between atoms: _548  and  _551
REMARK  230  A    between atoms: _551  and  _552
REMARK  231  A    between atoms: _552  and  _553
REMARK  232  A    between atoms: _553  and  _554
REMARK  233  A    between atoms: _563  and  _565
REMARK  234  A    between atoms: _565  and  _566
REMARK  235  A    between atoms: _565  and  _568
REMARK  236  A    between atoms: _568  and  _569
REMARK                            x       y       z     vdW  Elec       q    Type
REMARK                         _______ _______ _______ _____ _____    ______ ____
ROOT
ATOM      1  O   HOH     1      11.386  20.666   6.650  0.00  0.00    +0.000 OA
ENDROOT
TORSDOF 0
REMARK  Name = ../refined-set-2016/2cen/2cen_pocket.pdb
REMARK  236 active torsions:
REMARK  status: ('A' for Active; 'I' for Inactive)
REMARK    1  A    between atoms: _1  and  _3
REMARK    2  A    between atoms: _3  and  _4
REMARK    3  A    between atoms: _3  and  _6
REMARK    4  A    between atoms: _6  and  _7
REMARK    5  A    between atoms: _7  and  _8
REMARK    6  A    between atoms: _8  and  _9
REMARK    7  A    between atoms: _18  and  _20
REMARK    8  A    between atoms: _20  and  _21
REMARK    9  A    between atoms: _20  and  _23
REMARK   10  A    between atoms: _23  and  _24
REMARK   11  A    between atoms: _27  and  _29
REMARK   12  A    between atoms: _29  and  _30
REMARK   13  A    between atoms: _29  and  _32
REMARK   14  A    between atoms: _32  and  _33
REMARK   15  A    between atoms: _36  and  _38
REMARK   16  A    between atoms: _38  and  _39
REMARK   17  A    between atoms: _38  and  _41
REMARK   18  A    between atoms: _41  and  _42
REMARK   19  A    between atoms: _45  and  _47
REMARK   20  A    between atoms: _47  and  _48
REMARK   21  A    between atoms: _47  and  _50
REMARK   22  A    between atoms: _50  and  _51
REMARK   23  A    between atoms: _54  and  _56
REMARK   24  A    between atoms: _56  and  _57
REMARK   25  A    between atoms: _56  and  _59
REMARK   26  A    between atoms: _59  and  _60
REMARK   27  A    between atoms: _63  and  _65
REMARK   28  A    between atoms: _65  and  _66
REMARK   29  A    between atoms: _68  and  _70
REMARK   30  A    between atoms: _70  and  _71
REMARK   31  A    between atoms: _74  and  _76
REMARK   32  A    between atoms: _76  and  _77
REMARK   33  A    between atoms: _76  and  _79
REMARK   34  A    between atoms: _79  and  _80
REMARK   35  A    between atoms: _83  and  _85
REMARK   36  A    between atoms: _85  and  _86
REMARK   37  A    between atoms: _85  and  _88
REMARK   38  A    between atoms: _88  and  _89
REMARK   39  A    between atoms: _92  and  _94
REMARK   40  A    between atoms: _94  and  _95
REMARK   41  A    between atoms: _94  and  _97
REMARK   42  A    between atoms: _97  and  _98
REMARK   43  A    between atoms: _101  and  _103
REMARK   44  A    between atoms: _103  and  _104
REMARK   45  A    between atoms: _103  and  _106
REMARK   46  A    between atoms: _109  and  _111
REMARK   47  A    between atoms: _111  and  _112
REMARK   48  A    between atoms: _111  and  _114
REMARK   49  A    between atoms: _114  and  _115
REMARK   50  A    between atoms: _115  and  _116
REMARK   51  A    between atoms: _116  and  _117
REMARK   52  A    between atoms: _117  and  _118
REMARK   53  A    between atoms: _122  and  _124
REMARK   54  A    between atoms: _124  and  _125
REMARK   55  A    between atoms: _124  and  _127
REMARK   56  A    between atoms: _127  and  _128
REMARK   57  A    between atoms: _128  and  _129
REMARK   58  A    between atoms: _131  and  _133
REMARK   59  A    between atoms: _133  and  _134
REMARK   60  A    between atoms: _133  and  _136
REMARK   61  A    between atoms: _136  and  _137
REMARK   62  A    between atoms: _140  and  _142
REMARK   63  A    between atoms: _142  and  _143
REMARK   64  A    between atoms: _145  and  _147
REMARK   65  A    between atoms: _147  and  _148
REMARK   66  A    between atoms: _150  and  _152
REMARK   67  A    between atoms: _152  and  _153
REMARK   68  A    between atoms: _152  and  _155
REMARK   69  A    between atoms: _155  and  _156
REMARK   70  A    between atoms: _159  and  _161
REMARK   71  A    between atoms: _161  and  _162
REMARK   72  A    between atoms: _164  and  _166
REMARK   73  A    between atoms: _166  and  _167
REMARK   74  A    between atoms: _169  and  _171
REMARK   75  A    between atoms: _171  and  _172
REMARK   76  A    between atoms: _171  and  _174
REMARK   77  A    between atoms: _174  and  _175
REMARK   78  A    between atoms: _181  and  _183
REMARK   79  A    between atoms: _183  and  _184
REMARK   80  A    between atoms: _183  and  _186
REMARK   81  A    between atoms: _186  and  _187
REMARK   82  A    between atoms: _190  and  _192
REMARK   83  A    between atoms: _192  and  _193
REMARK   84  A    between atoms: _192  and  _195
REMARK   85  A    between atoms: _198  and  _200
REMARK   86  A    between atoms: _200  and  _201
REMARK   87  A    between atoms: _200  and  _203
REMARK   88  A    between atoms: _203  and  _204
REMARK   89  A    between atoms: _207  and  _209
REMARK   90  A    between atoms: _209  and  _210
REMARK   91  A    between atoms: _209  and  _212
REMARK   92  A    between atoms: _212  and  _213
REMARK   93  A    between atoms: _217  and  _218
REMARK   94  A    between atoms: _223  and  _225
REMARK   95  A    between atoms: _225  and  _226
REMARK   96  A    between atoms: _225  and  _228
REMARK   97  A    between atoms: _231  and  _233
REMARK   98  A    between atoms: _233  and  _234
REMARK   99  A    between atoms: _233  and  _236
REMARK  100  A    between atoms: _236  and  _237
REMARK  101  A    between atoms: _242  and  _244
REMARK  102  A    between atoms: _244  and  _245
REMARK  103  A    between atoms: _244  and  _247
REMARK  104  A    between atoms: _247  and  _248
REMARK  105  A    between atoms: _251  and  _253
REMARK  106  A    between atoms: _253  and  _254
REMARK  107  A    between atoms: _253  and  _256
REMARK  108  A    between atoms: _256  and  _257
REMARK  109  A    between atoms: _260  and  _262
REMARK  110  A    between atoms: _262  and  _263
REMARK  111  A    between atoms: _265  and  _267
REMARK  112  A    between atoms: _267  and  _268
REMARK  113  A    between atoms: _267  and  _270
REMARK  114  A    between atoms: _270  and  _271
REMARK  115  A    between atoms: _271  and  _272
REMARK  116  A    between atoms: _272  and  _273
REMARK  117  A    between atoms: _282  and  _284
REMARK  118  A    between atoms: _284  and  _285
REMARK  119  A    between atoms: _284  and  _287
REMARK  120  A    between atoms: _287  and  _288
REMARK  121  A    between atoms: _288  and  _289
REMARK  122  A    between atoms: _289  and  _290
REMARK  123  A    between atoms: _299  and  _301
REMARK  124  A    between atoms: _301  and  _302
REMARK  125  A    between atoms: _301  and  _304
REMARK  126  A    between atoms: _304  and  _305
REMARK  127  A    between atoms: _308  and  _310
REMARK  128  A    between atoms: _310  and  _311
REMARK  129  A    between atoms: _310  and  _313
REMARK  130  A    between atoms: _313  and  _314
REMARK  131  A    between atoms: _317  and  _319
REMARK  132  A    between atoms: _319  and  _320
REMARK  133  A    between atoms: _319  and  _322
REMARK  134  A    between atoms: _322  and  _323
REMARK  135  A    between atoms: _326  and  _328
REMARK  136  A    between atoms: _328  and  _329
REMARK  137  A    between atoms: _328  and  _331
REMARK  138  A    between atoms: _331  and  _332
REMARK  139  A    between atoms: _335  and  _337
REMARK  140  A    between atoms: _337  and  _338
REMARK  141  A    between atoms: _340  and  _342
REMARK  142  A    between atoms: _342  and  _343
REMARK  143  A    between atoms: _346  and  _348
REMARK  144  A    between atoms: _348  and  _349
REMARK  145  A    between atoms: _348  and  _351
REMARK  146  A    between atoms: _351  and  _352
REMARK  147  A    between atoms: _355  and  _357
REMARK  148  A    between atoms: _357  and  _358
REMARK  149  A    between atoms: _357  and  _360
REMARK  150  A    between atoms: _360  and  _361
REMARK  151  A    between atoms: _364  and  _366
REMARK  152  A    between atoms: _366  and  _367
REMARK  153  A    between atoms: _366  and  _369
REMARK  154  A    between atoms: _369  and  _370
REMARK  155  A    between atoms: _373  and  _375
REMARK  156  A    between atoms: _375  and  _376
REMARK  157  A    between atoms: _375  and  _378
REMARK  158  A    between atoms: _381  and  _383
REMARK  159  A    between atoms: _383  and  _384
REMARK  160  A    between atoms: _383  and  _386
REMARK  161  A    between atoms: _386  and  _387
REMARK  162  A    between atoms: _390  and  _392
REMARK  163  A    between atoms: _392  and  _393
REMARK  164  A    between atoms: _392  and  _395
REMARK  165  A    between atoms: _395  and  _396
REMARK  166  A    between atoms: _396  and  _397
REMARK  167  A    between atoms: _397  and  _398
REMARK  168  A    between atoms: _398  and  _399
REMARK  169  A    between atoms: _403  and  _405
REMARK  170  A    between atoms: _405  and  _406
REMARK  171  A    between atoms: _405  and  _408
REMARK  172  A    between atoms: _408  and  _409
REMARK  173  A    between atoms: _409  and  _410
REMARK  174  A    between atoms: _412  and  _414
REMARK  175  A    between atoms: _414  and  _415
REMARK  176  A    between atoms: _414  and  _417
REMARK  177  A    between atoms: _417  and  _418
REMARK  178  A    between atoms: _421  and  _423
REMARK  179  A    between atoms: _423  and  _424
REMARK  180  A    between atoms: _426  and  _428
REMARK  181  A    between atoms: _428  and  _429
REMARK  182  A    between atoms: _431  and  _433
REMARK  183  A    between atoms: _433  and  _434
REMARK  184  A    between atoms: _433  and  _436
REMARK  185  A    between atoms: _436  and  _437
REMARK  186  A    between atoms: _440  and  _442
REMARK  187  A    between atoms: _442  and  _443
REMARK  188  A    between atoms: _445  and  _447
REMARK  189  A    between atoms: _447  and  _448
REMARK  190  A    between atoms: _450  and  _452
REMARK  191  A    between atoms: _452  and  _453
REMARK  192  A    between atoms: _452  and  _455
REMARK  193  A    between atoms: _455  and  _456
REMARK  194  A    between atoms: _462  and  _464
REMARK  195  A    between atoms: _464  and  _465
REMARK  196  A    between atoms: _464  and  _467
REMARK  197  A    between atoms: _467  and  _468
REMARK  198  A    between atoms: _471  and  _473
REMARK  199  A    between atoms: _473  and  _474
REMARK  200  A    between atoms: _473  and  _476
REMARK  201  A    between atoms: _479  and  _481
REMARK  202  A    between atoms: _481  and  _482
REMARK  203  A    between atoms: _481  and  _484
REMARK  204  A    between atoms: _484  and  _485
REMARK  205  A    between atoms: _488  and  _490
REMARK  206  A    between atoms: _490  and  _491
REMARK  207  A    between atoms: _490  and  _493
REMARK  208  A    between atoms: _493  and  _494
REMARK  209  A    between atoms: _498  and  _499
REMARK  210  A    between atoms: _504  and  _506
REMARK  211  A    between atoms: _506  and  _507
REMARK  212  A    between atoms: _506  and  _509
REMARK  213  A    between atoms: _512  and  _514
REMARK  214  A    between atoms: _514  and  _515
REMARK  215  A    between atoms: _514  and  _517
REMARK  216  A    between atoms: _517  and  _518
REMARK  217  A    between atoms: _523  and  _525
REMARK  218  A    between atoms: _525  and  _526
REMARK  219  A    between atoms: _525  and  _528
REMARK  220  A    between atoms: _528  and  _529
REMARK  221  A    between atoms: _532  and  _534
REMARK  222  A    between atoms: _534  and  _535
REMARK  223  A    between atoms: _534  and  _537
REMARK  224  A    between atoms: _537  and  _538
REMARK  225  A    between atoms: _541  and  _543
REMARK  226  A    between atoms: _543  and  _544
REMARK  227  A    between atoms: _546  and  _548
REMARK  228  A    between atoms: _548  and  _549
REMARK  229  A    between atoms: _548  and  _551
REMARK  230  A    between atoms: _551  and  _552
REMARK  231  A    between atoms: _552  and  _553
REMARK  232  A    between atoms: _553  and  _554
REMARK  233  A    between atoms: _563  and  _565
REMARK  234  A    between atoms: _565  and  _566
REMARK  235  A    between atoms: _565  and  _568
REMARK  236  A    between atoms: _568  and  _569
REMARK                            x       y       z     vdW  Elec       q    Type
REMARK                         _______ _______ _______ _____ _____    ______ ____
ROOT
ATOM      1  O   HOH     1       2.975  26.178  -0.569  0.00  0.00    +0.000 OA
ENDROOT
TORSDOF 0
