REMARK  Name = ../refined-set-2016/3k5x/3k5x_pocket.pdb
REMARK  163 active torsions:
REMARK  status: ('A' for Active; 'I' for Inactive)
REMARK    1  A    between atoms: _1  and  _3
REMARK    2  A    between atoms: _14  and  _17
REMARK    3  A    between atoms: _17  and  _18
REMARK    4  A    between atoms: _25  and  _26
REMARK    5  A    between atoms: _32  and  _34
REMARK    6  A    between atoms: _34  and  _35
REMARK    7  A    between atoms: _34  and  _37
REMARK    8  A    between atoms: _37  and  _38
REMARK    9  A    between atoms: _48  and  _50
REMARK   10  A    between atoms: _50  and  _51
REMARK   11  A    between atoms: _54  and  _56
REMARK   12  A    between atoms: _56  and  _57
REMARK   13  A    between atoms: _56  and  _59
REMARK   14  A    between atoms: _59  and  _60
REMARK   15  A    between atoms: _62  and  _64
REMARK   16  A    between atoms: _64  and  _65
REMARK   17  A    between atoms: _64  and  _67
REMARK   18  A    between atoms: _70  and  _72
REMARK   19  A    between atoms: _72  and  _73
REMARK   20  A    between atoms: _72  and  _75
REMARK   21  A    between atoms: _75  and  _76
REMARK   22  A    between atoms: _81  and  _82
REMARK   23  A    between atoms: _84  and  _86
REMARK   24  A    between atoms: _86  and  _87
REMARK   25  A    between atoms: _86  and  _89
REMARK   26  A    between atoms: _92  and  _94
REMARK   27  A    between atoms: _94  and  _95
REMARK   28  A    between atoms: _94  and  _97
REMARK   29  A    between atoms: _97  and  _98
REMARK   30  A    between atoms: _98  and  _99
REMARK   31  A    between atoms: _99  and  _100
REMARK   32  A    between atoms: _109  and  _111
REMARK   33  A    between atoms: _111  and  _112
REMARK   34  A    between atoms: _111  and  _114
REMARK   35  A    between atoms: _114  and  _115
REMARK   36  A    between atoms: _117  and  _119
REMARK   37  A    between atoms: _119  and  _120
REMARK   38  A    between atoms: _119  and  _122
REMARK   39  A    between atoms: _122  and  _123
REMARK   40  A    between atoms: _123  and  _124
REMARK   41  A    between atoms: _129  and  _131
REMARK   42  A    between atoms: _131  and  _132
REMARK   43  A    between atoms: _131  and  _134
REMARK   44  A    between atoms: _134  and  _135
REMARK   45  A    between atoms: _135  and  _136
REMARK   46  A    between atoms: _136  and  _137
REMARK   47  A    between atoms: _136  and  _138
REMARK   48  A    between atoms: _137  and  ZN_426
REMARK   49  A    between atoms: _138  and  ZN_427
REMARK   50  A    between atoms: _139  and  _141
REMARK   51  A    between atoms: _141  and  _142
REMARK   52  A    between atoms: _141  and  _144
REMARK   53  A    between atoms: _144  and  _145
REMARK   54  A    between atoms: _150  and  _151
REMARK   55  A    between atoms: _153  and  _155
REMARK   56  A    between atoms: _155  and  _156
REMARK   57  A    between atoms: _155  and  _158
REMARK   58  A    between atoms: _158  and  _159
REMARK   59  A    between atoms: _162  and  _164
REMARK   60  A    between atoms: _164  and  _165
REMARK   61  A    between atoms: _164  and  _167
REMARK   62  A    between atoms: _167  and  _168
REMARK   63  A    between atoms: _171  and  _173
REMARK   64  A    between atoms: _173  and  _174
REMARK   65  A    between atoms: _173  and  _176
REMARK   66  A    between atoms: _176  and  _177
REMARK   67  A    between atoms: _182  and  _184
REMARK   68  A    between atoms: _184  and  _185
REMARK   69  A    between atoms: _184  and  _187
REMARK   70  A    between atoms: _187  and  _188
REMARK   71  A    between atoms: _193  and  _195
REMARK   72  A    between atoms: _195  and  _196
REMARK   73  A    between atoms: _195  and  _198
REMARK   74  A    between atoms: _198  and  _199
REMARK   75  A    between atoms: _202  and  _204
REMARK   76  A    between atoms: _204  and  _205
REMARK   77  A    between atoms: _204  and  _207
REMARK   78  A    between atoms: _207  and  _208
REMARK   79  A    between atoms: _210  and  _212
REMARK   80  A    between atoms: _212  and  _213
REMARK   81  A    between atoms: _212  and  _215
REMARK   82  A    between atoms: _215  and  _216
REMARK   83  A    between atoms: _220  and  ZN_427
REMARK   84  A    between atoms: _221  and  _223
REMARK   85  A    between atoms: _223  and  _224
REMARK   86  A    between atoms: _223  and  _226
REMARK   87  A    between atoms: _226  and  _227
REMARK   88  A    between atoms: _229  and  _231
REMARK   89  A    between atoms: _231  and  _232
REMARK   90  A    between atoms: _231  and  _234
REMARK   91  A    between atoms: _234  and  _235
REMARK   92  A    between atoms: _239  and  ZN_427
REMARK   93  A    between atoms: _240  and  _242
REMARK   94  A    between atoms: _242  and  _243
REMARK   95  A    between atoms: _242  and  _245
REMARK   96  A    between atoms: _245  and  _246
REMARK   97  A    between atoms: _248  and  _250
REMARK   98  A    between atoms: _250  and  _251
REMARK   99  A    between atoms: _250  and  _253
REMARK  100  A    between atoms: _253  and  _254
REMARK  101  A    between atoms: _259  and  _261
REMARK  102  A    between atoms: _261  and  _262
REMARK  103  A    between atoms: _261  and  _264
REMARK  104  A    between atoms: _264  and  _265
REMARK  105  A    between atoms: _265  and  _266
REMARK  106  A    between atoms: _266  and  _267
REMARK  107  A    between atoms: _276  and  _278
REMARK  108  A    between atoms: _278  and  _279
REMARK  109  A    between atoms: _278  and  _281
REMARK  110  A    between atoms: _281  and  _282
REMARK  111  A    between atoms: _285  and  _287
REMARK  112  A    between atoms: _287  and  _288
REMARK  113  A    between atoms: _287  and  _290
REMARK  114  A    between atoms: _294  and  _295
REMARK  115  A    between atoms: _300  and  _302
REMARK  116  A    between atoms: _302  and  _303
REMARK  117  A    between atoms: _302  and  _305
REMARK  118  A    between atoms: _305  and  _306
REMARK  119  A    between atoms: _306  and  _307
REMARK  120  A    between atoms: _307  and  _308
REMARK  121  A    between atoms: _308  and  _309
REMARK  122  A    between atoms: _313  and  _315
REMARK  123  A    between atoms: _315  and  _316
REMARK  124  A    between atoms: _315  and  _318
REMARK  125  A    between atoms: _318  and  _319
REMARK  126  A    between atoms: _325  and  _327
REMARK  127  A    between atoms: _327  and  _328
REMARK  128  A    between atoms: _327  and  _330
REMARK  129  A    between atoms: _330  and  _331
REMARK  130  A    between atoms: _334  and  _336
REMARK  131  A    between atoms: _336  and  _337
REMARK  132  A    between atoms: _336  and  _339
REMARK  133  A    between atoms: _339  and  _340
REMARK  134  A    between atoms: _340  and  _341
REMARK  135  A    between atoms: _341  and  _342
REMARK  136  A    between atoms: _351  and  _353
REMARK  137  A    between atoms: _353  and  _354
REMARK  138  A    between atoms: _356  and  _358
REMARK  139  A    between atoms: _358  and  _359
REMARK  140  A    between atoms: _361  and  _363
REMARK  141  A    between atoms: _363  and  _364
REMARK  142  A    between atoms: _363  and  _366
REMARK  143  A    between atoms: _366  and  _367
REMARK  144  A    between atoms: _370  and  _372
REMARK  145  A    between atoms: _372  and  _373
REMARK  146  A    between atoms: _372  and  _375
REMARK  147  A    between atoms: _375  and  _376
REMARK  148  A    between atoms: _381  and  _382
REMARK  149  A    between atoms: _384  and  _386
REMARK  150  A    between atoms: _386  and  _387
REMARK  151  A    between atoms: _386  and  _389
REMARK  152  A    between atoms: _389  and  _390
REMARK  153  A    between atoms: _393  and  _395
REMARK  154  A    between atoms: _395  and  _396
REMARK  155  A    between atoms: _398  and  _400
REMARK  156  A    between atoms: _400  and  _401
REMARK  157  A    between atoms: _400  and  _403
REMARK  158  A    between atoms: _403  and  _404
REMARK  159  A    between atoms: _408  and  _409
REMARK  160  A    between atoms: _414  and  _416
REMARK  161  A    between atoms: _416  and  _417
REMARK  162  A    between atoms: _416  and  _419
REMARK  163  A    between atoms: _419  and  _420
REMARK                            x       y       z     vdW  Elec       q    Type
REMARK                         _______ _______ _______ _____ _____    ______ ____
ROOT
ATOM      1 ZN   UNK A   3     -27.324  27.484 -15.877  0.00  0.00    +0.000 Zn
ENDROOT
BRANCH   1   2
ATOM      2  N   UNK A   3     -26.992  25.451 -15.442  0.00  0.00    +0.000 N 
ATOM      3  C   UNK A   3     -27.020  24.826 -14.219  0.00  0.00    +0.000 A 
ATOM      4  C   UNK A   3     -26.893  23.495 -14.443  0.00  0.00    +0.000 A 
ATOM      5  N   UNK A   3     -26.796  23.348 -15.811  0.00  0.00    +0.000 NA
ATOM      6  C   UNK A   3     -26.857  24.536 -16.387  0.00  0.00    +0.000 A 
BRANCH   4   7
ATOM      7  C   UNK A   3     -26.779  22.347 -13.481  0.00  0.00    +0.000 C 
BRANCH   7   8
ATOM      8  C   UNK A   3     -27.824  21.211 -13.671  0.00  0.00    +0.000 C 
BRANCH   8   9
ATOM      9  C   UNK A   3     -29.242  21.674 -13.326  0.00  0.00    +0.000 C 
ATOM     10  N   UNK A   3     -30.060  20.717 -12.892  0.00  0.00    +0.000 N 
ATOM     11  H   UNK A   3     -29.699  19.744 -12.829  0.00  0.00    +0.000 HD
ATOM     12  O   UNK A   3     -29.592  22.840 -13.467  0.00  0.00    +0.000 OA
BRANCH  10  13
ATOM     13  C   UNK A   3     -31.444  20.976 -12.500  0.00  0.00    +0.000 C 
BRANCH  13  14
ATOM     14  C   UNK A   3     -31.833  20.033 -11.374  0.00  0.00    +0.000 C 
ATOM     15  O   UNK A   3     -31.362  18.894 -11.312  0.00  0.00    +0.000 OA
ENDBRANCH  13  14
BRANCH  13  16
ATOM     16  C   UNK A   3     -32.405  20.758 -13.674  0.00  0.00    +0.000 C 
BRANCH  16  17
ATOM     17  O   UNK A   3     -32.201  21.711 -14.701  0.00  0.00    +0.000 OA
ATOM     18  H   UNK A   3     -31.273  21.637 -15.039  0.00  0.00    +0.000 HD
ENDBRANCH  16  17
ENDBRANCH  13  16
ENDBRANCH  10  13
ENDBRANCH   8   9
BRANCH   8  19
ATOM     19  N   UNK A   3     -27.756  20.624 -15.003  0.00  0.00    +0.000 N 
ATOM     20  C   UNK A   1     -26.742  19.846 -15.367  0.00  0.00    +0.000 C 
ATOM     21  O   UNK A   1     -25.774  19.622 -14.642  0.00  0.00    +0.000 OA
ATOM     22  H   UNK A   2     -28.518  20.818 -15.684  0.00  0.00    +0.000 HD
BRANCH  20  23
ATOM     23  C   UNK A   1     -26.805  19.247 -16.763  0.00  0.00    +0.000 C 
BRANCH  23  24
ATOM     24  N   UNK A   1     -28.156  19.070 -17.294  0.00  0.00    +0.000 NA
ATOM     25  H   UNK A   1     -28.457  19.626 -18.119  0.00  0.00    +0.000 HD
ENDBRANCH  23  24
BRANCH  23  26
ATOM     26  C   UNK A   1     -25.965  20.087 -17.724  0.00  0.00    +0.000 C 
BRANCH  26  27
ATOM     27  O   UNK A   1     -26.430  21.421 -17.759  0.00  0.00    +0.000 OA
ATOM     28  H   UNK A   1     -26.369  21.814 -16.853  0.00  0.00    +0.000 HD
ENDBRANCH  26  27
ENDBRANCH  23  26
ENDBRANCH  20  23
ENDBRANCH   8  19
ENDBRANCH   7   8
ENDBRANCH   4   7
ENDBRANCH   1   2
BRANCH   1  29
ATOM     29  N   UNK A   3     -29.156  27.792 -16.728  0.00  0.00    +0.000 N 
ATOM     30  C   UNK A   3     -29.983  28.815 -16.613  0.00  0.00    +0.000 A 
ATOM     31  N   UNK A   3     -31.050  28.575 -17.352  0.00  0.00    +0.000 NA
ATOM     32  C   UNK A   3     -30.910  27.353 -17.971  0.00  0.00    +0.000 A 
ATOM     33  C   UNK A   3     -29.712  26.863 -17.573  0.00  0.00    +0.000 A 
BRANCH  32  34
ATOM     34  C   UNK A   3     -31.956  26.780 -18.871  0.00  0.00    +0.000 C 
BRANCH  34  35
ATOM     35  C   UNK A   3     -33.100  26.080 -18.127  0.00  0.00    +0.000 C 
BRANCH  35  36
ATOM     36  N   UNK A   3     -32.675  24.748 -17.678  0.00  0.00    +0.000 N 
ATOM     37  H   UNK A   2     -32.768  24.507 -16.670  0.00  0.00    +0.000 HD
ATOM     38  C   UNK A   1     -32.176  23.837 -18.509  0.00  0.00    +0.000 C 
ATOM     39  O   UNK A   1     -32.070  24.027 -19.728  0.00  0.00    +0.000 OA
BRANCH  38  40
ATOM     40  C   UNK A   1     -31.762  22.491 -17.898  0.00  0.00    +0.000 C 
BRANCH  40  41
ATOM     41  N   UNK A   1     -31.783  21.593 -19.040  0.00  0.00    +0.000 NA
ATOM     42  H   UNK A   1     -30.901  21.179 -19.404  0.00  0.00    +0.000 HD
ENDBRANCH  40  41
BRANCH  40  43
ATOM     43  C   UNK A   1     -30.355  22.576 -17.294  0.00  0.00    +0.000 C 
BRANCH  43  44
ATOM     44  O   UNK A   1     -30.103  21.459 -16.452  0.00  0.00    +0.000 OA
ATOM     45  H   UNK A   1     -30.767  21.444 -15.718  0.00  0.00    +0.000 HD
ENDBRANCH  43  44
ENDBRANCH  40  43
ENDBRANCH  38  40
ENDBRANCH  35  36
BRANCH  35  46
ATOM     46  C   UNK A   3     -34.349  26.179 -18.999  0.00  0.00    +0.000 C 
ATOM     47  O   UNK A   2     -35.014  27.215 -18.997  0.00  0.00    +0.000 OA
ENDBRANCH  35  46
ENDBRANCH  34  35
ENDBRANCH  32  34
ENDBRANCH   1  29
BRANCH   1  48
ATOM     48  O   UNK A   3     -26.477  27.258 -17.715  0.00  0.00    +0.000 OA
BRANCH  48  49
ATOM     49  C   UNK A   3     -25.618  27.503 -18.589  0.00  0.00    +0.000 C 
BRANCH  49  50
ATOM     50  O   UNK A   3     -24.478  27.925 -18.308  0.00  0.00    +0.000 OA
BRANCH  50  63
ATOM     51  C   UNK A   3     -21.805  21.813 -15.298  0.00  0.00    +0.000 C 
ATOM     52  C   UNK A   3     -20.970  22.648 -14.333  0.00  0.00    +0.000 C 
ATOM     53  O   UNK A   1     -21.377  22.881 -13.196  0.00  0.00    +0.000 OA
ATOM     54  N   UNK A   2     -19.810  23.098 -14.800  0.00  0.00    +0.000 N 
ATOM     55  C   UNK A   2     -18.922  23.945 -14.004  0.00  0.00    +0.000 C 
ATOM     56  C   UNK A   2     -18.594  25.138 -14.900  0.00  0.00    +0.000 C 
ATOM     57  N   UNK A   3     -18.836  26.349 -14.397  0.00  0.00    +0.000 N 
ATOM     58  H   UNK A   3     -19.201  26.427 -13.426  0.00  0.00    +0.000 HD
ATOM     59  C   UNK A   3     -18.604  27.572 -15.167  0.00  0.00    +0.000 C 
ATOM     60  C   UNK A   3     -19.724  28.590 -14.893  0.00  0.00    +0.000 C 
ATOM     61  C   UNK A   3     -20.978  28.322 -15.710  0.00  0.00    +0.000 C 
ATOM     62  O   UNK A   3     -22.047  28.087 -15.106  0.00  0.00    +0.000 OA
ATOM     63 ZN   UNK A   3     -23.670  27.915 -16.341  0.00  0.00    +0.000 Zn
ATOM     64  N   UNK A   3     -23.487  25.845 -16.535  0.00  0.00    +0.000 N 
ATOM     65  C   UNK A   3     -23.353  24.972 -15.481  0.00  0.00    +0.000 A 
ATOM     66  C   UNK A   3     -23.339  23.720 -15.998  0.00  0.00    +0.000 A 
ATOM     67  N   UNK A   3     -23.462  23.867 -17.363  0.00  0.00    +0.000 NA
ATOM     68  C   UNK A   3     -23.550  25.153 -17.659  0.00  0.00    +0.000 A 
ATOM     69  O   UNK A   3     -20.898  28.352 -16.957  0.00  0.00    +0.000 OA
ATOM     70  O   UNK A   2     -18.138  24.957 -16.032  0.00  0.00    +0.000 OA
ATOM     71  H   UNK A   2     -19.523  22.839 -15.766  0.00  0.00    +0.000 HD
ATOM     72  C   UNK A   3     -23.229  22.379 -15.337  0.00  0.00    +0.000 C 
BRANCH  59  73
ATOM     73  C   UNK A   3     -17.255  28.256 -14.973  0.00  0.00    +0.000 C 
ATOM     74  O   UNK A   3     -17.152  29.478 -15.107  0.00  0.00    +0.000 OA
ENDBRANCH  59  73
BRANCH  51  75
ATOM     75  N   UNK A   3     -21.864  20.393 -14.955  0.00  0.00    +0.000 NA
ATOM     76  H   UNK A   1     -21.580  20.068 -14.009  0.00  0.00    +0.000 HD
ENDBRANCH  51  75
BRANCH  55  77
ATOM     77  C   UNK A   2     -17.650  23.177 -13.620  0.00  0.00    +0.000 C 
BRANCH  77  78
ATOM     78  C   UNK A   2     -16.697  24.004 -12.775  0.00  0.00    +0.000 C 
ATOM     79  N   UNK A   2     -16.368  23.507 -11.586  0.00  0.00    +0.000 N 
ATOM     80  H   UNK A   2     -15.713  24.028 -10.968  0.00  0.00    +0.000 HD
ATOM     81  H   UNK A   2     -16.765  22.598 -11.274  0.00  0.00    +0.000 HD
ATOM     82  O   UNK A   2     -16.256  25.073 -13.190  0.00  0.00    +0.000 OA
ENDBRANCH  77  78
ENDBRANCH  55  77
ENDBRANCH  50  63
ENDBRANCH  49  50
BRANCH  49  83
ATOM     83  C   UNK A   3     -25.997  27.290 -20.046  0.00  0.00    +0.000 C 
BRANCH  83  84
ATOM     84  C   UNK A   3     -24.802  27.049 -20.967  0.00  0.00    +0.000 C 
BRANCH  84  85
ATOM     85  C   UNK A   3     -25.208  26.622 -22.387  0.00  0.00    +0.000 C 
BRANCH  85  86
ATOM     86  N   UNK A   3     -24.022  26.316 -23.177  0.00  0.00    +0.000 NA
ATOM     87  H   UNK A   1     -23.310  27.054 -23.350  0.00  0.00    +0.000 HD
ENDBRANCH  85  86
BRANCH  85  88
ATOM     88  C   UNK A   3     -26.103  27.678 -23.027  0.00  0.00    +0.000 C 
ATOM     89  O   UNK A   1     -26.015  28.868 -22.714  0.00  0.00    +0.000 OA
ENDBRANCH  85  88
ENDBRANCH  84  85
ENDBRANCH  83  84
ENDBRANCH  49  83
ENDBRANCH  48  49
ENDBRANCH   1  48
TORSDOF 35
REMARK  Name = ../refined-set-2016/3k5x/3k5x_pocket.pdb
REMARK  163 active torsions:
REMARK  status: ('A' for Active; 'I' for Inactive)
REMARK    1  A    between atoms: _1  and  _3
REMARK    2  A    between atoms: _14  and  _17
REMARK    3  A    between atoms: _17  and  _18
REMARK    4  A    between atoms: _25  and  _26
REMARK    5  A    between atoms: _32  and  _34
REMARK    6  A    between atoms: _34  and  _35
REMARK    7  A    between atoms: _34  and  _37
REMARK    8  A    between atoms: _37  and  _38
REMARK    9  A    between atoms: _48  and  _50
REMARK   10  A    between atoms: _50  and  _51
REMARK   11  A    between atoms: _54  and  _56
REMARK   12  A    between atoms: _56  and  _57
REMARK   13  A    between atoms: _56  and  _59
REMARK   14  A    between atoms: _59  and  _60
REMARK   15  A    between atoms: _62  and  _64
REMARK   16  A    between atoms: _64  and  _65
REMARK   17  A    between atoms: _64  and  _67
REMARK   18  A    between atoms: _70  and  _72
REMARK   19  A    between atoms: _72  and  _73
REMARK   20  A    between atoms: _72  and  _75
REMARK   21  A    between atoms: _75  and  _76
REMARK   22  A    between atoms: _81  and  _82
REMARK   23  A    between atoms: _84  and  _86
REMARK   24  A    between atoms: _86  and  _87
REMARK   25  A    between atoms: _86  and  _89
REMARK   26  A    between atoms: _92  and  _94
REMARK   27  A    between atoms: _94  and  _95
REMARK   28  A    between atoms: _94  and  _97
REMARK   29  A    between atoms: _97  and  _98
REMARK   30  A    between atoms: _98  and  _99
REMARK   31  A    between atoms: _99  and  _100
REMARK   32  A    between atoms: _109  and  _111
REMARK   33  A    between atoms: _111  and  _112
REMARK   34  A    between atoms: _111  and  _114
REMARK   35  A    between atoms: _114  and  _115
REMARK   36  A    between atoms: _117  and  _119
REMARK   37  A    between atoms: _119  and  _120
REMARK   38  A    between atoms: _119  and  _122
REMARK   39  A    between atoms: _122  and  _123
REMARK   40  A    between atoms: _123  and  _124
REMARK   41  A    between atoms: _129  and  _131
REMARK   42  A    between atoms: _131  and  _132
REMARK   43  A    between atoms: _131  and  _134
REMARK   44  A    between atoms: _134  and  _135
REMARK   45  A    between atoms: _135  and  _136
REMARK   46  A    between atoms: _136  and  _137
REMARK   47  A    between atoms: _136  and  _138
REMARK   48  A    between atoms: _137  and  ZN_426
REMARK   49  A    between atoms: _138  and  ZN_427
REMARK   50  A    between atoms: _139  and  _141
REMARK   51  A    between atoms: _141  and  _142
REMARK   52  A    between atoms: _141  and  _144
REMARK   53  A    between atoms: _144  and  _145
REMARK   54  A    between atoms: _150  and  _151
REMARK   55  A    between atoms: _153  and  _155
REMARK   56  A    between atoms: _155  and  _156
REMARK   57  A    between atoms: _155  and  _158
REMARK   58  A    between atoms: _158  and  _159
REMARK   59  A    between atoms: _162  and  _164
REMARK   60  A    between atoms: _164  and  _165
REMARK   61  A    between atoms: _164  and  _167
REMARK   62  A    between atoms: _167  and  _168
REMARK   63  A    between atoms: _171  and  _173
REMARK   64  A    between atoms: _173  and  _174
REMARK   65  A    between atoms: _173  and  _176
REMARK   66  A    between atoms: _176  and  _177
REMARK   67  A    between atoms: _182  and  _184
REMARK   68  A    between atoms: _184  and  _185
REMARK   69  A    between atoms: _184  and  _187
REMARK   70  A    between atoms: _187  and  _188
REMARK   71  A    between atoms: _193  and  _195
REMARK   72  A    between atoms: _195  and  _196
REMARK   73  A    between atoms: _195  and  _198
REMARK   74  A    between atoms: _198  and  _199
REMARK   75  A    between atoms: _202  and  _204
REMARK   76  A    between atoms: _204  and  _205
REMARK   77  A    between atoms: _204  and  _207
REMARK   78  A    between atoms: _207  and  _208
REMARK   79  A    between atoms: _210  and  _212
REMARK   80  A    between atoms: _212  and  _213
REMARK   81  A    between atoms: _212  and  _215
REMARK   82  A    between atoms: _215  and  _216
REMARK   83  A    between atoms: _220  and  ZN_427
REMARK   84  A    between atoms: _221  and  _223
REMARK   85  A    between atoms: _223  and  _224
REMARK   86  A    between atoms: _223  and  _226
REMARK   87  A    between atoms: _226  and  _227
REMARK   88  A    between atoms: _229  and  _231
REMARK   89  A    between atoms: _231  and  _232
REMARK   90  A    between atoms: _231  and  _234
REMARK   91  A    between atoms: _234  and  _235
REMARK   92  A    between atoms: _239  and  ZN_427
REMARK   93  A    between atoms: _240  and  _242
REMARK   94  A    between atoms: _242  and  _243
REMARK   95  A    between atoms: _242  and  _245
REMARK   96  A    between atoms: _245  and  _246
REMARK   97  A    between atoms: _248  and  _250
REMARK   98  A    between atoms: _250  and  _251
REMARK   99  A    between atoms: _250  and  _253
REMARK  100  A    between atoms: _253  and  _254
REMARK  101  A    between atoms: _259  and  _261
REMARK  102  A    between atoms: _261  and  _262
REMARK  103  A    between atoms: _261  and  _264
REMARK  104  A    between atoms: _264  and  _265
REMARK  105  A    between atoms: _265  and  _266
REMARK  106  A    between atoms: _266  and  _267
REMARK  107  A    between atoms: _276  and  _278
REMARK  108  A    between atoms: _278  and  _279
REMARK  109  A    between atoms: _278  and  _281
REMARK  110  A    between atoms: _281  and  _282
REMARK  111  A    between atoms: _285  and  _287
REMARK  112  A    between atoms: _287  and  _288
REMARK  113  A    between atoms: _287  and  _290
REMARK  114  A    between atoms: _294  and  _295
REMARK  115  A    between atoms: _300  and  _302
REMARK  116  A    between atoms: _302  and  _303
REMARK  117  A    between atoms: _302  and  _305
REMARK  118  A    between atoms: _305  and  _306
REMARK  119  A    between atoms: _306  and  _307
REMARK  120  A    between atoms: _307  and  _308
REMARK  121  A    between atoms: _308  and  _309
REMARK  122  A    between atoms: _313  and  _315
REMARK  123  A    between atoms: _315  and  _316
REMARK  124  A    between atoms: _315  and  _318
REMARK  125  A    between atoms: _318  and  _319
REMARK  126  A    between atoms: _325  and  _327
REMARK  127  A    between atoms: _327  and  _328
REMARK  128  A    between atoms: _327  and  _330
REMARK  129  A    between atoms: _330  and  _331
REMARK  130  A    between atoms: _334  and  _336
REMARK  131  A    between atoms: _336  and  _337
REMARK  132  A    between atoms: _336  and  _339
REMARK  133  A    between atoms: _339  and  _340
REMARK  134  A    between atoms: _340  and  _341
REMARK  135  A    between atoms: _341  and  _342
REMARK  136  A    between atoms: _351  and  _353
REMARK  137  A    between atoms: _353  and  _354
REMARK  138  A    between atoms: _356  and  _358
REMARK  139  A    between atoms: _358  and  _359
REMARK  140  A    between atoms: _361  and  _363
REMARK  141  A    between atoms: _363  and  _364
REMARK  142  A    between atoms: _363  and  _366
REMARK  143  A    between atoms: _366  and  _367
REMARK  144  A    between atoms: _370  and  _372
REMARK  145  A    between atoms: _372  and  _373
REMARK  146  A    between atoms: _372  and  _375
REMARK  147  A    between atoms: _375  and  _376
REMARK  148  A    between atoms: _381  and  _382
REMARK  149  A    between atoms: _384  and  _386
REMARK  150  A    between atoms: _386  and  _387
REMARK  151  A    between atoms: _386  and  _389
REMARK  152  A    between atoms: _389  and  _390
REMARK  153  A    between atoms: _393  and  _395
REMARK  154  A    between atoms: _395  and  _396
REMARK  155  A    between atoms: _398  and  _400
REMARK  156  A    between atoms: _400  and  _401
REMARK  157  A    between atoms: _400  and  _403
REMARK  158  A    between atoms: _403  and  _404
REMARK  159  A    between atoms: _408  and  _409
REMARK  160  A    between atoms: _414  and  _416
REMARK  161  A    between atoms: _416  and  _417
REMARK  162  A    between atoms: _416  and  _419
REMARK  163  A    between atoms: _419  and  _420
REMARK                            x       y       z     vdW  Elec       q    Type
REMARK                         _______ _______ _______ _____ _____    ______ ____
ROOT
ATOM      1  CA  TRP A   1     -16.954  32.163 -17.596  0.00  0.00    +0.149 C 
ENDROOT
BRANCH   1   2
ATOM      2  C   TRP A   1     -16.352  32.974 -16.453  0.00  0.00    +0.239 C 
ATOM      3  N   ALA A   2     -16.052  32.309 -15.343  0.00  0.00    -0.298 N 
ATOM      4  H   ALA A   2     -16.236  31.287 -15.291  0.00  0.00    +0.150 HD
ATOM      5  O   TRP A   1     -16.153  34.181 -16.578  0.00  0.00    -0.274 OA
BRANCH   3   6
ATOM      6  CA  ALA A   2     -15.468  32.996 -14.196  0.00  0.00    +0.137 C 
ATOM      7  CB  ALA A   2     -15.320  32.030 -13.023  0.00  0.00    +0.030 C 
BRANCH   6   8
ATOM      8  C   ALA A   2     -14.112  33.580 -14.580  0.00  0.00    +0.227 C 
ATOM      9  O   ALA A   2     -13.771  34.692 -14.176  0.00  0.00    -0.286 OA
ENDBRANCH   6   8
ENDBRANCH   3   6
ENDBRANCH   1   2
BRANCH   1  10
ATOM     10  N   TRP A   1     -16.310  30.859 -17.694  0.00  0.00    -0.238 NA
ATOM     11  H   TRP A   1     -16.866  29.993 -17.541  0.00  0.00    +0.142 HD
ENDBRANCH   1  10
BRANCH   1  12
ATOM     12  CB  TRP A   1     -18.465  32.011 -17.391  0.00  0.00    +0.054 C 
BRANCH  12  13
ATOM     13  CG  TRP A   1     -19.177  33.333 -17.331  0.00  0.00    -0.002 A 
ATOM     14  CD1 TRP A   1     -19.589  33.993 -16.209  0.00  0.00    +0.068 A 
ATOM     15  NE1 TRP A   1     -20.157  35.197 -16.550  0.00  0.00    -0.352 N 
ATOM     16  HE1 TRP A   1     -20.550  35.890 -15.882  0.00  0.00    +0.166 HD
ATOM     17  CE2 TRP A   1     -20.122  35.337 -17.912  0.00  0.00    +0.056 A 
ATOM     18  CZ2 TRP A   1     -20.575  36.384 -18.725  0.00  0.00    +0.017 A 
ATOM     19  CH2 TRP A   1     -20.406  36.253 -20.080  0.00  0.00    +0.001 A 
ATOM     20  CZ3 TRP A   1     -19.800  35.112 -20.637  0.00  0.00    +0.000 A 
ATOM     21  CE3 TRP A   1     -19.350  34.071 -19.828  0.00  0.00    +0.001 A 
ATOM     22  CD2 TRP A   1     -19.510  34.178 -18.440  0.00  0.00    +0.013 A 
ENDBRANCH  12  13
ENDBRANCH   1  12
TORSDOF 6
REMARK  Name = ../refined-set-2016/3k5x/3k5x_pocket.pdb
REMARK  163 active torsions:
REMARK  status: ('A' for Active; 'I' for Inactive)
REMARK    1  A    between atoms: _1  and  _3
REMARK    2  A    between atoms: _14  and  _17
REMARK    3  A    between atoms: _17  and  _18
REMARK    4  A    between atoms: _25  and  _26
REMARK    5  A    between atoms: _32  and  _34
REMARK    6  A    between atoms: _34  and  _35
REMARK    7  A    between atoms: _34  and  _37
REMARK    8  A    between atoms: _37  and  _38
REMARK    9  A    between atoms: _48  and  _50
REMARK   10  A    between atoms: _50  and  _51
REMARK   11  A    between atoms: _54  and  _56
REMARK   12  A    between atoms: _56  and  _57
REMARK   13  A    between atoms: _56  and  _59
REMARK   14  A    between atoms: _59  and  _60
REMARK   15  A    between atoms: _62  and  _64
REMARK   16  A    between atoms: _64  and  _65
REMARK   17  A    between atoms: _64  and  _67
REMARK   18  A    between atoms: _70  and  _72
REMARK   19  A    between atoms: _72  and  _73
REMARK   20  A    between atoms: _72  and  _75
REMARK   21  A    between atoms: _75  and  _76
REMARK   22  A    between atoms: _81  and  _82
REMARK   23  A    between atoms: _84  and  _86
REMARK   24  A    between atoms: _86  and  _87
REMARK   25  A    between atoms: _86  and  _89
REMARK   26  A    between atoms: _92  and  _94
REMARK   27  A    between atoms: _94  and  _95
REMARK   28  A    between atoms: _94  and  _97
REMARK   29  A    between atoms: _97  and  _98
REMARK   30  A    between atoms: _98  and  _99
REMARK   31  A    between atoms: _99  and  _100
REMARK   32  A    between atoms: _109  and  _111
REMARK   33  A    between atoms: _111  and  _112
REMARK   34  A    between atoms: _111  and  _114
REMARK   35  A    between atoms: _114  and  _115
REMARK   36  A    between atoms: _117  and  _119
REMARK   37  A    between atoms: _119  and  _120
REMARK   38  A    between atoms: _119  and  _122
REMARK   39  A    between atoms: _122  and  _123
REMARK   40  A    between atoms: _123  and  _124
REMARK   41  A    between atoms: _129  and  _131
REMARK   42  A    between atoms: _131  and  _132
REMARK   43  A    between atoms: _131  and  _134
REMARK   44  A    between atoms: _134  and  _135
REMARK   45  A    between atoms: _135  and  _136
REMARK   46  A    between atoms: _136  and  _137
REMARK   47  A    between atoms: _136  and  _138
REMARK   48  A    between atoms: _137  and  ZN_426
REMARK   49  A    between atoms: _138  and  ZN_427
REMARK   50  A    between atoms: _139  and  _141
REMARK   51  A    between atoms: _141  and  _142
REMARK   52  A    between atoms: _141  and  _144
REMARK   53  A    between atoms: _144  and  _145
REMARK   54  A    between atoms: _150  and  _151
REMARK   55  A    between atoms: _153  and  _155
REMARK   56  A    between atoms: _155  and  _156
REMARK   57  A    between atoms: _155  and  _158
REMARK   58  A    between atoms: _158  and  _159
REMARK   59  A    between atoms: _162  and  _164
REMARK   60  A    between atoms: _164  and  _165
REMARK   61  A    between atoms: _164  and  _167
REMARK   62  A    between atoms: _167  and  _168
REMARK   63  A    between atoms: _171  and  _173
REMARK   64  A    between atoms: _173  and  _174
REMARK   65  A    between atoms: _173  and  _176
REMARK   66  A    between atoms: _176  and  _177
REMARK   67  A    between atoms: _182  and  _184
REMARK   68  A    between atoms: _184  and  _185
REMARK   69  A    between atoms: _184  and  _187
REMARK   70  A    between atoms: _187  and  _188
REMARK   71  A    between atoms: _193  and  _195
REMARK   72  A    between atoms: _195  and  _196
REMARK   73  A    between atoms: _195  and  _198
REMARK   74  A    between atoms: _198  and  _199
REMARK   75  A    between atoms: _202  and  _204
REMARK   76  A    between atoms: _204  and  _205
REMARK   77  A    between atoms: _204  and  _207
REMARK   78  A    between atoms: _207  and  _208
REMARK   79  A    between atoms: _210  and  _212
REMARK   80  A    between atoms: _212  and  _213
REMARK   81  A    between atoms: _212  and  _215
REMARK   82  A    between atoms: _215  and  _216
REMARK   83  A    between atoms: _220  and  ZN_427
REMARK   84  A    between atoms: _221  and  _223
REMARK   85  A    between atoms: _223  and  _224
REMARK   86  A    between atoms: _223  and  _226
REMARK   87  A    between atoms: _226  and  _227
REMARK   88  A    between atoms: _229  and  _231
REMARK   89  A    between atoms: _231  and  _232
REMARK   90  A    between atoms: _231  and  _234
REMARK   91  A    between atoms: _234  and  _235
REMARK   92  A    between atoms: _239  and  ZN_427
REMARK   93  A    between atoms: _240  and  _242
REMARK   94  A    between atoms: _242  and  _243
REMARK   95  A    between atoms: _242  and  _245
REMARK   96  A    between atoms: _245  and  _246
REMARK   97  A    between atoms: _248  and  _250
REMARK   98  A    between atoms: _250  and  _251
REMARK   99  A    between atoms: _250  and  _253
REMARK  100  A    between atoms: _253  and  _254
REMARK  101  A    between atoms: _259  and  _261
REMARK  102  A    between atoms: _261  and  _262
REMARK  103  A    between atoms: _261  and  _264
REMARK  104  A    between atoms: _264  and  _265
REMARK  105  A    between atoms: _265  and  _266
REMARK  106  A    between atoms: _266  and  _267
REMARK  107  A    between atoms: _276  and  _278
REMARK  108  A    between atoms: _278  and  _279
REMARK  109  A    between atoms: _278  and  _281
REMARK  110  A    between atoms: _281  and  _282
REMARK  111  A    between atoms: _285  and  _287
REMARK  112  A    between atoms: _287  and  _288
REMARK  113  A    between atoms: _287  and  _290
REMARK  114  A    between atoms: _294  and  _295
REMARK  115  A    between atoms: _300  and  _302
REMARK  116  A    between atoms: _302  and  _303
REMARK  117  A    between atoms: _302  and  _305
REMARK  118  A    between atoms: _305  and  _306
REMARK  119  A    between atoms: _306  and  _307
REMARK  120  A    between atoms: _307  and  _308
REMARK  121  A    between atoms: _308  and  _309
REMARK  122  A    between atoms: _313  and  _315
REMARK  123  A    between atoms: _315  and  _316
REMARK  124  A    between atoms: _315  and  _318
REMARK  125  A    between atoms: _318  and  _319
REMARK  126  A    between atoms: _325  and  _327
REMARK  127  A    between atoms: _327  and  _328
REMARK  128  A    between atoms: _327  and  _330
REMARK  129  A    between atoms: _330  and  _331
REMARK  130  A    between atoms: _334  and  _336
REMARK  131  A    between atoms: _336  and  _337
REMARK  132  A    between atoms: _336  and  _339
REMARK  133  A    between atoms: _339  and  _340
REMARK  134  A    between atoms: _340  and  _341
REMARK  135  A    between atoms: _341  and  _342
REMARK  136  A    between atoms: _351  and  _353
REMARK  137  A    between atoms: _353  and  _354
REMARK  138  A    between atoms: _356  and  _358
REMARK  139  A    between atoms: _358  and  _359
REMARK  140  A    between atoms: _361  and  _363
REMARK  141  A    between atoms: _363  and  _364
REMARK  142  A    between atoms: _363  and  _366
REMARK  143  A    between atoms: _366  and  _367
REMARK  144  A    between atoms: _370  and  _372
REMARK  145  A    between atoms: _372  and  _373
REMARK  146  A    between atoms: _372  and  _375
REMARK  147  A    between atoms: _375  and  _376
REMARK  148  A    between atoms: _381  and  _382
REMARK  149  A    between atoms: _384  and  _386
REMARK  150  A    between atoms: _386  and  _387
REMARK  151  A    between atoms: _386  and  _389
REMARK  152  A    between atoms: _389  and  _390
REMARK  153  A    between atoms: _393  and  _395
REMARK  154  A    between atoms: _395  and  _396
REMARK  155  A    between atoms: _398  and  _400
REMARK  156  A    between atoms: _400  and  _401
REMARK  157  A    between atoms: _400  and  _403
REMARK  158  A    between atoms: _403  and  _404
REMARK  159  A    between atoms: _408  and  _409
REMARK  160  A    between atoms: _414  and  _416
REMARK  161  A    between atoms: _416  and  _417
REMARK  162  A    between atoms: _416  and  _419
REMARK  163  A    between atoms: _419  and  _420
REMARK                            x       y       z     vdW  Elec       q    Type
REMARK                         _______ _______ _______ _____ _____    ______ ____
ROOT
ATOM      1  C   TYR A   3     -21.264  30.891 -21.947  0.00  0.00    +0.241 C 
ATOM      2  O   TYR A   3     -20.130  31.297 -21.698  0.00  0.00    -0.273 OA
ATOM      3  N   VAL A   4     -22.184  31.624 -22.564  0.00  0.00    -0.297 N 
ATOM      4  H   VAL A   4     -23.097  31.184 -22.799  0.00  0.00    +0.150 HD
ENDROOT
BRANCH   3   5
ATOM      5  CA  VAL A   4     -21.966  33.023 -22.926  0.00  0.00    +0.149 C 
BRANCH   5   6
ATOM      6  C   VAL A   4     -23.327  33.687 -22.738  0.00  0.00    +0.241 C 
ATOM      7  N   ARG A   5     -23.335  34.988 -22.465  0.00  0.00    -0.297 N 
ATOM      8  H   ARG A   5     -22.434  35.503 -22.399  0.00  0.00    +0.150 HD
ATOM      9  O   VAL A   4     -24.357  33.021 -22.819  0.00  0.00    -0.273 OA
BRANCH   7  10
ATOM     10  CA  ARG A   5     -24.589  35.704 -22.257  0.00  0.00    +0.149 C 
BRANCH  10  11
ATOM     11  C   ARG A   5     -25.442  35.767 -23.517  0.00  0.00    +0.241 C 
ATOM     12  N   SER A   6     -26.746  35.575 -23.352  0.00  0.00    -0.296 N 
ATOM     13  H   SER A   6     -27.119  35.391 -22.399  0.00  0.00    +0.150 HD
ATOM     14  O   ARG A   5     -24.933  35.983 -24.616  0.00  0.00    -0.273 OA
BRANCH  12  15
ATOM     15  CA  SER A   6     -27.662  35.617 -24.482  0.00  0.00    +0.166 C 
BRANCH  15  16
ATOM     16  C   SER A   6     -28.207  37.024 -24.707  0.00  0.00    +0.229 C 
ATOM     17  O   SER A   6     -28.902  37.273 -25.691  0.00  0.00    -0.286 OA
ENDBRANCH  15  16
BRANCH  15  18
ATOM     18  CB  SER A   6     -28.825  34.646 -24.258  0.00  0.00    +0.165 C 
BRANCH  18  19
ATOM     19  OG  SER A   6     -29.531  34.966 -23.073  0.00  0.00    -0.380 OA
ATOM     20  H   SER A   6     -30.276  34.325 -22.951  0.00  0.00    +0.211 HD
ENDBRANCH  18  19
ENDBRANCH  15  18
ENDBRANCH  12  15
ENDBRANCH  10  11
BRANCH  10  21
ATOM     21  CB  ARG A   5     -24.305  37.119 -21.746  0.00  0.00    +0.033 C 
BRANCH  21  22
ATOM     22  CG  ARG A   5     -23.798  37.150 -20.316  0.00  0.00    +0.045 C 
BRANCH  22  23
ATOM     23  CD  ARG A   5     -23.378  38.548 -19.895  0.00  0.00    +0.174 C 
BRANCH  23  24
ATOM     24  NE  ARG A   5     -24.467  39.514 -20.003  0.00  0.00    -0.265 N 
ATOM     25  CZ  ARG A   5     -24.375  40.781 -19.611  0.00  0.00    +0.342 C 
ATOM     26  NH2 ARG A   5     -23.243  41.230 -19.084  0.00  0.00    -0.292 N 
ATOM     27 HH21 ARG A   5     -23.169  42.221 -18.777  0.00  0.00    +0.255 HD
ATOM     28 HH22 ARG A   5     -22.429  40.591 -18.978  0.00  0.00    +0.255 HD
ATOM     29  NH1 ARG A   5     -25.410  41.599 -19.745  0.00  0.00    -0.292 N 
ATOM     30 HH11 ARG A   5     -25.333  42.589 -19.437  0.00  0.00    +0.255 HD
ATOM     31 HH12 ARG A   5     -26.298  41.250 -20.158  0.00  0.00    +0.255 HD
ATOM     32  HE  ARG A   5     -25.368  39.192 -20.411  0.00  0.00    +0.259 HD
ENDBRANCH  23  24
ENDBRANCH  22  23
ENDBRANCH  21  22
ENDBRANCH  10  21
ENDBRANCH   7  10
ENDBRANCH   5   6
BRANCH   5  33
ATOM     33  CB  VAL A   4     -21.476  33.222 -24.393  0.00  0.00    +0.027 C 
ATOM     34  CG2 VAL A   4     -20.180  32.456 -24.613  0.00  0.00    +0.002 C 
ATOM     35  CG1 VAL A   4     -22.542  32.793 -25.385  0.00  0.00    +0.002 C 
ENDBRANCH   5  33
ENDBRANCH   3   5
BRANCH   1  36
ATOM     36  CA  TYR A   3     -21.701  29.484 -21.544  0.00  0.00    +0.153 C 
BRANCH  36  38
ATOM     37  C   VAL A   2     -19.832  28.336 -22.673  0.00  0.00    +0.241 C 
ATOM     38  N   TYR A   3     -20.615  28.513 -21.613  0.00  0.00    -0.297 N 
ATOM     39  H   TYR A   3     -20.441  27.919 -20.777  0.00  0.00    +0.150 HD
ATOM     40  O   VAL A   2     -19.962  28.952 -23.732  0.00  0.00    -0.273 OA
BRANCH  37  41
ATOM     41  CA  VAL A   2     -18.737  27.290 -22.468  0.00  0.00    +0.148 C 
BRANCH  41  44
ATOM     42  C   SER A   1     -18.774  26.093 -20.364  0.00  0.00    +0.241 C 
ATOM     43  O   SER A   1     -17.843  26.767 -19.915  0.00  0.00    -0.274 OA
ATOM     44  N   VAL A   2     -19.254  26.243 -21.595  0.00  0.00    -0.297 N 
ATOM     45  H   VAL A   2     -20.004  25.609 -21.938  0.00  0.00    +0.150 HD
BRANCH  42  46
ATOM     46  CA  SER A   1     -19.425  25.020 -19.511  0.00  0.00    +0.174 C 
BRANCH  46  47
ATOM     47  N   SER A   1     -18.447  24.204 -18.813  0.00  0.00    -0.236 NA
ATOM     48  H   SER A   1     -18.305  24.342 -17.792  0.00  0.00    +0.142 HD
ENDBRANCH  46  47
BRANCH  46  49
ATOM     49  CB  SER A   1     -20.353  25.692 -18.500  0.00  0.00    +0.163 C 
BRANCH  49  50
ATOM     50  OG  SER A   1     -21.149  26.687 -19.124  0.00  0.00    -0.380 OA
ATOM     51  H   SER A   1     -21.740  27.106 -18.449  0.00  0.00    +0.211 HD
ENDBRANCH  49  50
ENDBRANCH  46  49
ENDBRANCH  42  46
ENDBRANCH  41  44
BRANCH  41  52
ATOM     52  CB  VAL A   2     -18.216  26.732 -23.819  0.00  0.00    +0.027 C 
ATOM     53  CG2 VAL A   2     -16.973  25.885 -23.564  0.00  0.00    +0.002 C 
ATOM     54  CG1 VAL A   2     -19.284  25.910 -24.520  0.00  0.00    +0.002 C 
ENDBRANCH  41  52
ENDBRANCH  37  41
ENDBRANCH  36  38
BRANCH  36  55
ATOM     55  CB  TYR A   3     -22.216  29.551 -20.099  0.00  0.00    +0.055 C 
BRANCH  55  56
ATOM     56  CG  TYR A   3     -23.001  30.808 -19.763  0.00  0.00    -0.020 A 
ATOM     57  CD2 TYR A   3     -22.384  31.895 -19.137  0.00  0.00    -0.001 A 
ATOM     58  CE2 TYR A   3     -23.101  33.054 -18.829  0.00  0.00    +0.036 A 
ATOM     59  CZ  TYR A   3     -24.449  33.128 -19.147  0.00  0.00    +0.134 A 
ATOM     60  CE1 TYR A   3     -25.081  32.063 -19.768  0.00  0.00    +0.036 A 
ATOM     61  CD1 TYR A   3     -24.355  30.911 -20.074  0.00  0.00    -0.001 A 
BRANCH  59  62
ATOM     62  OH  TYR A   3     -25.166  34.270 -18.847  0.00  0.00    -0.506 OA
ATOM     63  HH  TYR A   3     -25.140  34.427 -17.870  0.00  0.00    +0.292 HD
ENDBRANCH  59  62
ENDBRANCH  55  56
ENDBRANCH  36  55
ENDBRANCH   1  36
TORSDOF 25
REMARK  Name = ../refined-set-2016/3k5x/3k5x_pocket.pdb
REMARK  163 active torsions:
REMARK  status: ('A' for Active; 'I' for Inactive)
REMARK    1  A    between atoms: _1  and  _3
REMARK    2  A    between atoms: _14  and  _17
REMARK    3  A    between atoms: _17  and  _18
REMARK    4  A    between atoms: _25  and  _26
REMARK    5  A    between atoms: _32  and  _34
REMARK    6  A    between atoms: _34  and  _35
REMARK    7  A    between atoms: _34  and  _37
REMARK    8  A    between atoms: _37  and  _38
REMARK    9  A    between atoms: _48  and  _50
REMARK   10  A    between atoms: _50  and  _51
REMARK   11  A    between atoms: _54  and  _56
REMARK   12  A    between atoms: _56  and  _57
REMARK   13  A    between atoms: _56  and  _59
REMARK   14  A    between atoms: _59  and  _60
REMARK   15  A    between atoms: _62  and  _64
REMARK   16  A    between atoms: _64  and  _65
REMARK   17  A    between atoms: _64  and  _67
REMARK   18  A    between atoms: _70  and  _72
REMARK   19  A    between atoms: _72  and  _73
REMARK   20  A    between atoms: _72  and  _75
REMARK   21  A    between atoms: _75  and  _76
REMARK   22  A    between atoms: _81  and  _82
REMARK   23  A    between atoms: _84  and  _86
REMARK   24  A    between atoms: _86  and  _87
REMARK   25  A    between atoms: _86  and  _89
REMARK   26  A    between atoms: _92  and  _94
REMARK   27  A    between atoms: _94  and  _95
REMARK   28  A    between atoms: _94  and  _97
REMARK   29  A    between atoms: _97  and  _98
REMARK   30  A    between atoms: _98  and  _99
REMARK   31  A    between atoms: _99  and  _100
REMARK   32  A    between atoms: _109  and  _111
REMARK   33  A    between atoms: _111  and  _112
REMARK   34  A    between atoms: _111  and  _114
REMARK   35  A    between atoms: _114  and  _115
REMARK   36  A    between atoms: _117  and  _119
REMARK   37  A    between atoms: _119  and  _120
REMARK   38  A    between atoms: _119  and  _122
REMARK   39  A    between atoms: _122  and  _123
REMARK   40  A    between atoms: _123  and  _124
REMARK   41  A    between atoms: _129  and  _131
REMARK   42  A    between atoms: _131  and  _132
REMARK   43  A    between atoms: _131  and  _134
REMARK   44  A    between atoms: _134  and  _135
REMARK   45  A    between atoms: _135  and  _136
REMARK   46  A    between atoms: _136  and  _137
REMARK   47  A    between atoms: _136  and  _138
REMARK   48  A    between atoms: _137  and  ZN_426
REMARK   49  A    between atoms: _138  and  ZN_427
REMARK   50  A    between atoms: _139  and  _141
REMARK   51  A    between atoms: _141  and  _142
REMARK   52  A    between atoms: _141  and  _144
REMARK   53  A    between atoms: _144  and  _145
REMARK   54  A    between atoms: _150  and  _151
REMARK   55  A    between atoms: _153  and  _155
REMARK   56  A    between atoms: _155  and  _156
REMARK   57  A    between atoms: _155  and  _158
REMARK   58  A    between atoms: _158  and  _159
REMARK   59  A    between atoms: _162  and  _164
REMARK   60  A    between atoms: _164  and  _165
REMARK   61  A    between atoms: _164  and  _167
REMARK   62  A    between atoms: _167  and  _168
REMARK   63  A    between atoms: _171  and  _173
REMARK   64  A    between atoms: _173  and  _174
REMARK   65  A    between atoms: _173  and  _176
REMARK   66  A    between atoms: _176  and  _177
REMARK   67  A    between atoms: _182  and  _184
REMARK   68  A    between atoms: _184  and  _185
REMARK   69  A    between atoms: _184  and  _187
REMARK   70  A    between atoms: _187  and  _188
REMARK   71  A    between atoms: _193  and  _195
REMARK   72  A    between atoms: _195  and  _196
REMARK   73  A    between atoms: _195  and  _198
REMARK   74  A    between atoms: _198  and  _199
REMARK   75  A    between atoms: _202  and  _204
REMARK   76  A    between atoms: _204  and  _205
REMARK   77  A    between atoms: _204  and  _207
REMARK   78  A    between atoms: _207  and  _208
REMARK   79  A    between atoms: _210  and  _212
REMARK   80  A    between atoms: _212  and  _213
REMARK   81  A    between atoms: _212  and  _215
REMARK   82  A    between atoms: _215  and  _216
REMARK   83  A    between atoms: _220  and  ZN_427
REMARK   84  A    between atoms: _221  and  _223
REMARK   85  A    between atoms: _223  and  _224
REMARK   86  A    between atoms: _223  and  _226
REMARK   87  A    between atoms: _226  and  _227
REMARK   88  A    between atoms: _229  and  _231
REMARK   89  A    between atoms: _231  and  _232
REMARK   90  A    between atoms: _231  and  _234
REMARK   91  A    between atoms: _234  and  _235
REMARK   92  A    between atoms: _239  and  ZN_427
REMARK   93  A    between atoms: _240  and  _242
REMARK   94  A    between atoms: _242  and  _243
REMARK   95  A    between atoms: _242  and  _245
REMARK   96  A    between atoms: _245  and  _246
REMARK   97  A    between atoms: _248  and  _250
REMARK   98  A    between atoms: _250  and  _251
REMARK   99  A    between atoms: _250  and  _253
REMARK  100  A    between atoms: _253  and  _254
REMARK  101  A    between atoms: _259  and  _261
REMARK  102  A    between atoms: _261  and  _262
REMARK  103  A    between atoms: _261  and  _264
REMARK  104  A    between atoms: _264  and  _265
REMARK  105  A    between atoms: _265  and  _266
REMARK  106  A    between atoms: _266  and  _267
REMARK  107  A    between atoms: _276  and  _278
REMARK  108  A    between atoms: _278  and  _279
REMARK  109  A    between atoms: _278  and  _281
REMARK  110  A    between atoms: _281  and  _282
REMARK  111  A    between atoms: _285  and  _287
REMARK  112  A    between atoms: _287  and  _288
REMARK  113  A    between atoms: _287  and  _290
REMARK  114  A    between atoms: _294  and  _295
REMARK  115  A    between atoms: _300  and  _302
REMARK  116  A    between atoms: _302  and  _303
REMARK  117  A    between atoms: _302  and  _305
REMARK  118  A    between atoms: _305  and  _306
REMARK  119  A    between atoms: _306  and  _307
REMARK  120  A    between atoms: _307  and  _308
REMARK  121  A    between atoms: _308  and  _309
REMARK  122  A    between atoms: _313  and  _315
REMARK  123  A    between atoms: _315  and  _316
REMARK  124  A    between atoms: _315  and  _318
REMARK  125  A    between atoms: _318  and  _319
REMARK  126  A    between atoms: _325  and  _327
REMARK  127  A    between atoms: _327  and  _328
REMARK  128  A    between atoms: _327  and  _330
REMARK  129  A    between atoms: _330  and  _331
REMARK  130  A    between atoms: _334  and  _336
REMARK  131  A    between atoms: _336  and  _337
REMARK  132  A    between atoms: _336  and  _339
REMARK  133  A    between atoms: _339  and  _340
REMARK  134  A    between atoms: _340  and  _341
REMARK  135  A    between atoms: _341  and  _342
REMARK  136  A    between atoms: _351  and  _353
REMARK  137  A    between atoms: _353  and  _354
REMARK  138  A    between atoms: _356  and  _358
REMARK  139  A    between atoms: _358  and  _359
REMARK  140  A    between atoms: _361  and  _363
REMARK  141  A    between atoms: _363  and  _364
REMARK  142  A    between atoms: _363  and  _366
REMARK  143  A    between atoms: _366  and  _367
REMARK  144  A    between atoms: _370  and  _372
REMARK  145  A    between atoms: _372  and  _373
REMARK  146  A    between atoms: _372  and  _375
REMARK  147  A    between atoms: _375  and  _376
REMARK  148  A    between atoms: _381  and  _382
REMARK  149  A    between atoms: _384  and  _386
REMARK  150  A    between atoms: _386  and  _387
REMARK  151  A    between atoms: _386  and  _389
REMARK  152  A    between atoms: _389  and  _390
REMARK  153  A    between atoms: _393  and  _395
REMARK  154  A    between atoms: _395  and  _396
REMARK  155  A    between atoms: _398  and  _400
REMARK  156  A    between atoms: _400  and  _401
REMARK  157  A    between atoms: _400  and  _403
REMARK  158  A    between atoms: _403  and  _404
REMARK  159  A    between atoms: _408  and  _409
REMARK  160  A    between atoms: _414  and  _416
REMARK  161  A    between atoms: _416  and  _417
REMARK  162  A    between atoms: _416  and  _419
REMARK  163  A    between atoms: _419  and  _420
REMARK                            x       y       z     vdW  Elec       q    Type
REMARK                         _______ _______ _______ _____ _____    ______ ____
ROOT
ATOM      1  CB  GLN A   1     -16.397  29.844 -23.756  0.00  0.00    +0.035 C 
ENDROOT
BRANCH   1   2
ATOM      2  CA  GLN A   1     -14.901  29.976 -24.041  0.00  0.00    +0.134 C 
BRANCH   2   3
ATOM      3  N   GLN A   1     -14.687  30.841 -25.198  0.00  0.00    -0.239 NA
ATOM      4  H   GLN A   1     -15.504  31.151 -25.762  0.00  0.00    +0.142 HD
ENDBRANCH   2   3
BRANCH   2   5
ATOM      5  C   GLN A   1     -14.293  28.594 -24.315  0.00  0.00    +0.224 C 
ATOM      6  O   GLN A   1     -13.652  28.003 -23.447  0.00  0.00    -0.287 OA
ENDBRANCH   2   5
ENDBRANCH   1   2
BRANCH   1   7
ATOM      7  CG  GLN A   1     -17.017  31.054 -23.064  0.00  0.00    +0.087 C 
BRANCH   7   8
ATOM      8  CD  GLN A   1     -16.637  31.134 -21.598  0.00  0.00    +0.219 C 
ATOM      9  NE2 GLN A   1     -17.546  30.698 -20.734  0.00  0.00    -0.329 N 
ATOM     10 HE21 GLN A   1     -17.342  30.710 -19.714  0.00  0.00    +0.145 HD
ATOM     11 HE22 GLN A   1     -18.462  30.345 -21.077  0.00  0.00    +0.145 HD
ATOM     12  OE1 GLN A   1     -15.536  31.563 -21.244  0.00  0.00    -0.275 OA
ENDBRANCH   7   8
ENDBRANCH   1   7
TORSDOF 5
REMARK  Name = ../refined-set-2016/3k5x/3k5x_pocket.pdb
REMARK  163 active torsions:
REMARK  status: ('A' for Active; 'I' for Inactive)
REMARK    1  A    between atoms: _1  and  _3
REMARK    2  A    between atoms: _14  and  _17
REMARK    3  A    between atoms: _17  and  _18
REMARK    4  A    between atoms: _25  and  _26
REMARK    5  A    between atoms: _32  and  _34
REMARK    6  A    between atoms: _34  and  _35
REMARK    7  A    between atoms: _34  and  _37
REMARK    8  A    between atoms: _37  and  _38
REMARK    9  A    between atoms: _48  and  _50
REMARK   10  A    between atoms: _50  and  _51
REMARK   11  A    between atoms: _54  and  _56
REMARK   12  A    between atoms: _56  and  _57
REMARK   13  A    between atoms: _56  and  _59
REMARK   14  A    between atoms: _59  and  _60
REMARK   15  A    between atoms: _62  and  _64
REMARK   16  A    between atoms: _64  and  _65
REMARK   17  A    between atoms: _64  and  _67
REMARK   18  A    between atoms: _70  and  _72
REMARK   19  A    between atoms: _72  and  _73
REMARK   20  A    between atoms: _72  and  _75
REMARK   21  A    between atoms: _75  and  _76
REMARK   22  A    between atoms: _81  and  _82
REMARK   23  A    between atoms: _84  and  _86
REMARK   24  A    between atoms: _86  and  _87
REMARK   25  A    between atoms: _86  and  _89
REMARK   26  A    between atoms: _92  and  _94
REMARK   27  A    between atoms: _94  and  _95
REMARK   28  A    between atoms: _94  and  _97
REMARK   29  A    between atoms: _97  and  _98
REMARK   30  A    between atoms: _98  and  _99
REMARK   31  A    between atoms: _99  and  _100
REMARK   32  A    between atoms: _109  and  _111
REMARK   33  A    between atoms: _111  and  _112
REMARK   34  A    between atoms: _111  and  _114
REMARK   35  A    between atoms: _114  and  _115
REMARK   36  A    between atoms: _117  and  _119
REMARK   37  A    between atoms: _119  and  _120
REMARK   38  A    between atoms: _119  and  _122
REMARK   39  A    between atoms: _122  and  _123
REMARK   40  A    between atoms: _123  and  _124
REMARK   41  A    between atoms: _129  and  _131
REMARK   42  A    between atoms: _131  and  _132
REMARK   43  A    between atoms: _131  and  _134
REMARK   44  A    between atoms: _134  and  _135
REMARK   45  A    between atoms: _135  and  _136
REMARK   46  A    between atoms: _136  and  _137
REMARK   47  A    between atoms: _136  and  _138
REMARK   48  A    between atoms: _137  and  ZN_426
REMARK   49  A    between atoms: _138  and  ZN_427
REMARK   50  A    between atoms: _139  and  _141
REMARK   51  A    between atoms: _141  and  _142
REMARK   52  A    between atoms: _141  and  _144
REMARK   53  A    between atoms: _144  and  _145
REMARK   54  A    between atoms: _150  and  _151
REMARK   55  A    between atoms: _153  and  _155
REMARK   56  A    between atoms: _155  and  _156
REMARK   57  A    between atoms: _155  and  _158
REMARK   58  A    between atoms: _158  and  _159
REMARK   59  A    between atoms: _162  and  _164
REMARK   60  A    between atoms: _164  and  _165
REMARK   61  A    between atoms: _164  and  _167
REMARK   62  A    between atoms: _167  and  _168
REMARK   63  A    between atoms: _171  and  _173
REMARK   64  A    between atoms: _173  and  _174
REMARK   65  A    between atoms: _173  and  _176
REMARK   66  A    between atoms: _176  and  _177
REMARK   67  A    between atoms: _182  and  _184
REMARK   68  A    between atoms: _184  and  _185
REMARK   69  A    between atoms: _184  and  _187
REMARK   70  A    between atoms: _187  and  _188
REMARK   71  A    between atoms: _193  and  _195
REMARK   72  A    between atoms: _195  and  _196
REMARK   73  A    between atoms: _195  and  _198
REMARK   74  A    between atoms: _198  and  _199
REMARK   75  A    between atoms: _202  and  _204
REMARK   76  A    between atoms: _204  and  _205
REMARK   77  A    between atoms: _204  and  _207
REMARK   78  A    between atoms: _207  and  _208
REMARK   79  A    between atoms: _210  and  _212
REMARK   80  A    between atoms: _212  and  _213
REMARK   81  A    between atoms: _212  and  _215
REMARK   82  A    between atoms: _215  and  _216
REMARK   83  A    between atoms: _220  and  ZN_427
REMARK   84  A    between atoms: _221  and  _223
REMARK   85  A    between atoms: _223  and  _224
REMARK   86  A    between atoms: _223  and  _226
REMARK   87  A    between atoms: _226  and  _227
REMARK   88  A    between atoms: _229  and  _231
REMARK   89  A    between atoms: _231  and  _232
REMARK   90  A    between atoms: _231  and  _234
REMARK   91  A    between atoms: _234  and  _235
REMARK   92  A    between atoms: _239  and  ZN_427
REMARK   93  A    between atoms: _240  and  _242
REMARK   94  A    between atoms: _242  and  _243
REMARK   95  A    between atoms: _242  and  _245
REMARK   96  A    between atoms: _245  and  _246
REMARK   97  A    between atoms: _248  and  _250
REMARK   98  A    between atoms: _250  and  _251
REMARK   99  A    between atoms: _250  and  _253
REMARK  100  A    between atoms: _253  and  _254
REMARK  101  A    between atoms: _259  and  _261
REMARK  102  A    between atoms: _261  and  _262
REMARK  103  A    between atoms: _261  and  _264
REMARK  104  A    between atoms: _264  and  _265
REMARK  105  A    between atoms: _265  and  _266
REMARK  106  A    between atoms: _266  and  _267
REMARK  107  A    between atoms: _276  and  _278
REMARK  108  A    between atoms: _278  and  _279
REMARK  109  A    between atoms: _278  and  _281
REMARK  110  A    between atoms: _281  and  _282
REMARK  111  A    between atoms: _285  and  _287
REMARK  112  A    between atoms: _287  and  _288
REMARK  113  A    between atoms: _287  and  _290
REMARK  114  A    between atoms: _294  and  _295
REMARK  115  A    between atoms: _300  and  _302
REMARK  116  A    between atoms: _302  and  _303
REMARK  117  A    between atoms: _302  and  _305
REMARK  118  A    between atoms: _305  and  _306
REMARK  119  A    between atoms: _306  and  _307
REMARK  120  A    between atoms: _307  and  _308
REMARK  121  A    between atoms: _308  and  _309
REMARK  122  A    between atoms: _313  and  _315
REMARK  123  A    between atoms: _315  and  _316
REMARK  124  A    between atoms: _315  and  _318
REMARK  125  A    between atoms: _318  and  _319
REMARK  126  A    between atoms: _325  and  _327
REMARK  127  A    between atoms: _327  and  _328
REMARK  128  A    between atoms: _327  and  _330
REMARK  129  A    between atoms: _330  and  _331
REMARK  130  A    between atoms: _334  and  _336
REMARK  131  A    between atoms: _336  and  _337
REMARK  132  A    between atoms: _336  and  _339
REMARK  133  A    between atoms: _339  and  _340
REMARK  134  A    between atoms: _340  and  _341
REMARK  135  A    between atoms: _341  and  _342
REMARK  136  A    between atoms: _351  and  _353
REMARK  137  A    between atoms: _353  and  _354
REMARK  138  A    between atoms: _356  and  _358
REMARK  139  A    between atoms: _358  and  _359
REMARK  140  A    between atoms: _361  and  _363
REMARK  141  A    between atoms: _363  and  _364
REMARK  142  A    between atoms: _363  and  _366
REMARK  143  A    between atoms: _366  and  _367
REMARK  144  A    between atoms: _370  and  _372
REMARK  145  A    between atoms: _372  and  _373
REMARK  146  A    between atoms: _372  and  _375
REMARK  147  A    between atoms: _375  and  _376
REMARK  148  A    between atoms: _381  and  _382
REMARK  149  A    between atoms: _384  and  _386
REMARK  150  A    between atoms: _386  and  _387
REMARK  151  A    between atoms: _386  and  _389
REMARK  152  A    between atoms: _389  and  _390
REMARK  153  A    between atoms: _393  and  _395
REMARK  154  A    between atoms: _395  and  _396
REMARK  155  A    between atoms: _398  and  _400
REMARK  156  A    between atoms: _400  and  _401
REMARK  157  A    between atoms: _400  and  _403
REMARK  158  A    between atoms: _403  and  _404
REMARK  159  A    between atoms: _408  and  _409
REMARK  160  A    between atoms: _414  and  _416
REMARK  161  A    between atoms: _416  and  _417
REMARK  162  A    between atoms: _416  and  _419
REMARK  163  A    between atoms: _419  and  _420
REMARK                            x       y       z     vdW  Elec       q    Type
REMARK                         _______ _______ _______ _____ _____    ______ ____
ROOT
ATOM      1  CG  TYR A   1     -23.939  19.320 -22.398  0.00  0.00    -0.020 A 
ATOM      2  CD2 TYR A   1     -23.139  18.813 -21.373  0.00  0.00    -0.001 A 
ATOM      3  CE2 TYR A   1     -22.858  19.557 -20.233  0.00  0.00    +0.036 A 
ATOM      4  CZ  TYR A   1     -23.371  20.835 -20.098  0.00  0.00    +0.134 A 
ATOM      5  CE1 TYR A   1     -24.166  21.378 -21.101  0.00  0.00    +0.036 A 
ATOM      6  CD1 TYR A   1     -24.447  20.619 -22.249  0.00  0.00    -0.001 A 
ENDROOT
BRANCH   4   7
ATOM      7  OH  TYR A   1     -23.079  21.548 -18.952  0.00  0.00    -0.506 OA
ATOM      8  HH  TYR A   1     -23.418  21.056 -18.163  0.00  0.00    +0.292 HD
ENDBRANCH   4   7
BRANCH   1   9
ATOM      9  CB  TYR A   1     -24.326  18.429 -23.577  0.00  0.00    +0.051 C 
BRANCH   9  10
ATOM     10  CA  TYR A   1     -24.014  18.895 -25.025  0.00  0.00    +0.137 C 
BRANCH  10  11
ATOM     11  N   TYR A   1     -22.631  18.668 -25.433  0.00  0.00    -0.239 NA
ATOM     12  H   TYR A   1     -21.966  19.468 -25.437  0.00  0.00    +0.142 HD
ENDBRANCH  10  11
BRANCH  10  13
ATOM     13  C   TYR A   1     -24.311  20.368 -25.197  0.00  0.00    +0.224 C 
ATOM     14  O   TYR A   1     -23.400  21.193 -25.228  0.00  0.00    -0.287 OA
ENDBRANCH  10  13
ENDBRANCH   9  10
ENDBRANCH   1   9
TORSDOF 5
REMARK  Name = ../refined-set-2016/3k5x/3k5x_pocket.pdb
REMARK  163 active torsions:
REMARK  status: ('A' for Active; 'I' for Inactive)
REMARK    1  A    between atoms: _1  and  _3
REMARK    2  A    between atoms: _14  and  _17
REMARK    3  A    between atoms: _17  and  _18
REMARK    4  A    between atoms: _25  and  _26
REMARK    5  A    between atoms: _32  and  _34
REMARK    6  A    between atoms: _34  and  _35
REMARK    7  A    between atoms: _34  and  _37
REMARK    8  A    between atoms: _37  and  _38
REMARK    9  A    between atoms: _48  and  _50
REMARK   10  A    between atoms: _50  and  _51
REMARK   11  A    between atoms: _54  and  _56
REMARK   12  A    between atoms: _56  and  _57
REMARK   13  A    between atoms: _56  and  _59
REMARK   14  A    between atoms: _59  and  _60
REMARK   15  A    between atoms: _62  and  _64
REMARK   16  A    between atoms: _64  and  _65
REMARK   17  A    between atoms: _64  and  _67
REMARK   18  A    between atoms: _70  and  _72
REMARK   19  A    between atoms: _72  and  _73
REMARK   20  A    between atoms: _72  and  _75
REMARK   21  A    between atoms: _75  and  _76
REMARK   22  A    between atoms: _81  and  _82
REMARK   23  A    between atoms: _84  and  _86
REMARK   24  A    between atoms: _86  and  _87
REMARK   25  A    between atoms: _86  and  _89
REMARK   26  A    between atoms: _92  and  _94
REMARK   27  A    between atoms: _94  and  _95
REMARK   28  A    between atoms: _94  and  _97
REMARK   29  A    between atoms: _97  and  _98
REMARK   30  A    between atoms: _98  and  _99
REMARK   31  A    between atoms: _99  and  _100
REMARK   32  A    between atoms: _109  and  _111
REMARK   33  A    between atoms: _111  and  _112
REMARK   34  A    between atoms: _111  and  _114
REMARK   35  A    between atoms: _114  and  _115
REMARK   36  A    between atoms: _117  and  _119
REMARK   37  A    between atoms: _119  and  _120
REMARK   38  A    between atoms: _119  and  _122
REMARK   39  A    between atoms: _122  and  _123
REMARK   40  A    between atoms: _123  and  _124
REMARK   41  A    between atoms: _129  and  _131
REMARK   42  A    between atoms: _131  and  _132
REMARK   43  A    between atoms: _131  and  _134
REMARK   44  A    between atoms: _134  and  _135
REMARK   45  A    between atoms: _135  and  _136
REMARK   46  A    between atoms: _136  and  _137
REMARK   47  A    between atoms: _136  and  _138
REMARK   48  A    between atoms: _137  and  ZN_426
REMARK   49  A    between atoms: _138  and  ZN_427
REMARK   50  A    between atoms: _139  and  _141
REMARK   51  A    between atoms: _141  and  _142
REMARK   52  A    between atoms: _141  and  _144
REMARK   53  A    between atoms: _144  and  _145
REMARK   54  A    between atoms: _150  and  _151
REMARK   55  A    between atoms: _153  and  _155
REMARK   56  A    between atoms: _155  and  _156
REMARK   57  A    between atoms: _155  and  _158
REMARK   58  A    between atoms: _158  and  _159
REMARK   59  A    between atoms: _162  and  _164
REMARK   60  A    between atoms: _164  and  _165
REMARK   61  A    between atoms: _164  and  _167
REMARK   62  A    between atoms: _167  and  _168
REMARK   63  A    between atoms: _171  and  _173
REMARK   64  A    between atoms: _173  and  _174
REMARK   65  A    between atoms: _173  and  _176
REMARK   66  A    between atoms: _176  and  _177
REMARK   67  A    between atoms: _182  and  _184
REMARK   68  A    between atoms: _184  and  _185
REMARK   69  A    between atoms: _184  and  _187
REMARK   70  A    between atoms: _187  and  _188
REMARK   71  A    between atoms: _193  and  _195
REMARK   72  A    between atoms: _195  and  _196
REMARK   73  A    between atoms: _195  and  _198
REMARK   74  A    between atoms: _198  and  _199
REMARK   75  A    between atoms: _202  and  _204
REMARK   76  A    between atoms: _204  and  _205
REMARK   77  A    between atoms: _204  and  _207
REMARK   78  A    between atoms: _207  and  _208
REMARK   79  A    between atoms: _210  and  _212
REMARK   80  A    between atoms: _212  and  _213
REMARK   81  A    between atoms: _212  and  _215
REMARK   82  A    between atoms: _215  and  _216
REMARK   83  A    between atoms: _220  and  ZN_427
REMARK   84  A    between atoms: _221  and  _223
REMARK   85  A    between atoms: _223  and  _224
REMARK   86  A    between atoms: _223  and  _226
REMARK   87  A    between atoms: _226  and  _227
REMARK   88  A    between atoms: _229  and  _231
REMARK   89  A    between atoms: _231  and  _232
REMARK   90  A    between atoms: _231  and  _234
REMARK   91  A    between atoms: _234  and  _235
REMARK   92  A    between atoms: _239  and  ZN_427
REMARK   93  A    between atoms: _240  and  _242
REMARK   94  A    between atoms: _242  and  _243
REMARK   95  A    between atoms: _242  and  _245
REMARK   96  A    between atoms: _245  and  _246
REMARK   97  A    between atoms: _248  and  _250
REMARK   98  A    between atoms: _250  and  _251
REMARK   99  A    between atoms: _250  and  _253
REMARK  100  A    between atoms: _253  and  _254
REMARK  101  A    between atoms: _259  and  _261
REMARK  102  A    between atoms: _261  and  _262
REMARK  103  A    between atoms: _261  and  _264
REMARK  104  A    between atoms: _264  and  _265
REMARK  105  A    between atoms: _265  and  _266
REMARK  106  A    between atoms: _266  and  _267
REMARK  107  A    between atoms: _276  and  _278
REMARK  108  A    between atoms: _278  and  _279
REMARK  109  A    between atoms: _278  and  _281
REMARK  110  A    between atoms: _281  and  _282
REMARK  111  A    between atoms: _285  and  _287
REMARK  112  A    between atoms: _287  and  _288
REMARK  113  A    between atoms: _287  and  _290
REMARK  114  A    between atoms: _294  and  _295
REMARK  115  A    between atoms: _300  and  _302
REMARK  116  A    between atoms: _302  and  _303
REMARK  117  A    between atoms: _302  and  _305
REMARK  118  A    between atoms: _305  and  _306
REMARK  119  A    between atoms: _306  and  _307
REMARK  120  A    between atoms: _307  and  _308
REMARK  121  A    between atoms: _308  and  _309
REMARK  122  A    between atoms: _313  and  _315
REMARK  123  A    between atoms: _315  and  _316
REMARK  124  A    between atoms: _315  and  _318
REMARK  125  A    between atoms: _318  and  _319
REMARK  126  A    between atoms: _325  and  _327
REMARK  127  A    between atoms: _327  and  _328
REMARK  128  A    between atoms: _327  and  _330
REMARK  129  A    between atoms: _330  and  _331
REMARK  130  A    between atoms: _334  and  _336
REMARK  131  A    between atoms: _336  and  _337
REMARK  132  A    between atoms: _336  and  _339
REMARK  133  A    between atoms: _339  and  _340
REMARK  134  A    between atoms: _340  and  _341
REMARK  135  A    between atoms: _341  and  _342
REMARK  136  A    between atoms: _351  and  _353
REMARK  137  A    between atoms: _353  and  _354
REMARK  138  A    between atoms: _356  and  _358
REMARK  139  A    between atoms: _358  and  _359
REMARK  140  A    between atoms: _361  and  _363
REMARK  141  A    between atoms: _363  and  _364
REMARK  142  A    between atoms: _363  and  _366
REMARK  143  A    between atoms: _366  and  _367
REMARK  144  A    between atoms: _370  and  _372
REMARK  145  A    between atoms: _372  and  _373
REMARK  146  A    between atoms: _372  and  _375
REMARK  147  A    between atoms: _375  and  _376
REMARK  148  A    between atoms: _381  and  _382
REMARK  149  A    between atoms: _384  and  _386
REMARK  150  A    between atoms: _386  and  _387
REMARK  151  A    between atoms: _386  and  _389
REMARK  152  A    between atoms: _389  and  _390
REMARK  153  A    between atoms: _393  and  _395
REMARK  154  A    between atoms: _395  and  _396
REMARK  155  A    between atoms: _398  and  _400
REMARK  156  A    between atoms: _400  and  _401
REMARK  157  A    between atoms: _400  and  _403
REMARK  158  A    between atoms: _403  and  _404
REMARK  159  A    between atoms: _408  and  _409
REMARK  160  A    between atoms: _414  and  _416
REMARK  161  A    between atoms: _416  and  _417
REMARK  162  A    between atoms: _416  and  _419
REMARK  163  A    between atoms: _419  and  _420
REMARK                            x       y       z     vdW  Elec       q    Type
REMARK                         _______ _______ _______ _____ _____    ______ ____
ROOT
ATOM      1  CA  THR A   1     -28.575  23.516 -23.128  0.00  0.00    +0.160 C 
ENDROOT
BRANCH   1   2
ATOM      2  N   THR A   1     -27.351  23.176 -23.839  0.00  0.00    -0.237 NA
ATOM      3  H   THR A   1     -26.466  23.657 -23.578  0.00  0.00    +0.142 HD
ENDBRANCH   1   2
BRANCH   1   4
ATOM      4  CB  THR A   1     -28.271  24.452 -21.946  0.00  0.00    +0.134 C 
ATOM      5  CG2 THR A   1     -29.412  24.415 -20.933  0.00  0.00    +0.034 C 
BRANCH   4   6
ATOM      6  OG1 THR A   1     -27.065  24.022 -21.297  0.00  0.00    -0.383 OA
ATOM      7  HG1 THR A   1     -27.182  23.096 -20.966  0.00  0.00    +0.210 HD
ENDBRANCH   4   6
ENDBRANCH   1   4
BRANCH   1   8
ATOM      8  C   THR A   1     -29.352  24.259 -24.213  0.00  0.00    +0.227 C 
ATOM      9  O   THR A   1     -28.830  25.195 -24.817  0.00  0.00    -0.287 OA
ENDBRANCH   1   8
TORSDOF 4
REMARK  Name = ../refined-set-2016/3k5x/3k5x_pocket.pdb
REMARK  163 active torsions:
REMARK  status: ('A' for Active; 'I' for Inactive)
REMARK    1  A    between atoms: _1  and  _3
REMARK    2  A    between atoms: _14  and  _17
REMARK    3  A    between atoms: _17  and  _18
REMARK    4  A    between atoms: _25  and  _26
REMARK    5  A    between atoms: _32  and  _34
REMARK    6  A    between atoms: _34  and  _35
REMARK    7  A    between atoms: _34  and  _37
REMARK    8  A    between atoms: _37  and  _38
REMARK    9  A    between atoms: _48  and  _50
REMARK   10  A    between atoms: _50  and  _51
REMARK   11  A    between atoms: _54  and  _56
REMARK   12  A    between atoms: _56  and  _57
REMARK   13  A    between atoms: _56  and  _59
REMARK   14  A    between atoms: _59  and  _60
REMARK   15  A    between atoms: _62  and  _64
REMARK   16  A    between atoms: _64  and  _65
REMARK   17  A    between atoms: _64  and  _67
REMARK   18  A    between atoms: _70  and  _72
REMARK   19  A    between atoms: _72  and  _73
REMARK   20  A    between atoms: _72  and  _75
REMARK   21  A    between atoms: _75  and  _76
REMARK   22  A    between atoms: _81  and  _82
REMARK   23  A    between atoms: _84  and  _86
REMARK   24  A    between atoms: _86  and  _87
REMARK   25  A    between atoms: _86  and  _89
REMARK   26  A    between atoms: _92  and  _94
REMARK   27  A    between atoms: _94  and  _95
REMARK   28  A    between atoms: _94  and  _97
REMARK   29  A    between atoms: _97  and  _98
REMARK   30  A    between atoms: _98  and  _99
REMARK   31  A    between atoms: _99  and  _100
REMARK   32  A    between atoms: _109  and  _111
REMARK   33  A    between atoms: _111  and  _112
REMARK   34  A    between atoms: _111  and  _114
REMARK   35  A    between atoms: _114  and  _115
REMARK   36  A    between atoms: _117  and  _119
REMARK   37  A    between atoms: _119  and  _120
REMARK   38  A    between atoms: _119  and  _122
REMARK   39  A    between atoms: _122  and  _123
REMARK   40  A    between atoms: _123  and  _124
REMARK   41  A    between atoms: _129  and  _131
REMARK   42  A    between atoms: _131  and  _132
REMARK   43  A    between atoms: _131  and  _134
REMARK   44  A    between atoms: _134  and  _135
REMARK   45  A    between atoms: _135  and  _136
REMARK   46  A    between atoms: _136  and  _137
REMARK   47  A    between atoms: _136  and  _138
REMARK   48  A    between atoms: _137  and  ZN_426
REMARK   49  A    between atoms: _138  and  ZN_427
REMARK   50  A    between atoms: _139  and  _141
REMARK   51  A    between atoms: _141  and  _142
REMARK   52  A    between atoms: _141  and  _144
REMARK   53  A    between atoms: _144  and  _145
REMARK   54  A    between atoms: _150  and  _151
REMARK   55  A    between atoms: _153  and  _155
REMARK   56  A    between atoms: _155  and  _156
REMARK   57  A    between atoms: _155  and  _158
REMARK   58  A    between atoms: _158  and  _159
REMARK   59  A    between atoms: _162  and  _164
REMARK   60  A    between atoms: _164  and  _165
REMARK   61  A    between atoms: _164  and  _167
REMARK   62  A    between atoms: _167  and  _168
REMARK   63  A    between atoms: _171  and  _173
REMARK   64  A    between atoms: _173  and  _174
REMARK   65  A    between atoms: _173  and  _176
REMARK   66  A    between atoms: _176  and  _177
REMARK   67  A    between atoms: _182  and  _184
REMARK   68  A    between atoms: _184  and  _185
REMARK   69  A    between atoms: _184  and  _187
REMARK   70  A    between atoms: _187  and  _188
REMARK   71  A    between atoms: _193  and  _195
REMARK   72  A    between atoms: _195  and  _196
REMARK   73  A    between atoms: _195  and  _198
REMARK   74  A    between atoms: _198  and  _199
REMARK   75  A    between atoms: _202  and  _204
REMARK   76  A    between atoms: _204  and  _205
REMARK   77  A    between atoms: _204  and  _207
REMARK   78  A    between atoms: _207  and  _208
REMARK   79  A    between atoms: _210  and  _212
REMARK   80  A    between atoms: _212  and  _213
REMARK   81  A    between atoms: _212  and  _215
REMARK   82  A    between atoms: _215  and  _216
REMARK   83  A    between atoms: _220  and  ZN_427
REMARK   84  A    between atoms: _221  and  _223
REMARK   85  A    between atoms: _223  and  _224
REMARK   86  A    between atoms: _223  and  _226
REMARK   87  A    between atoms: _226  and  _227
REMARK   88  A    between atoms: _229  and  _231
REMARK   89  A    between atoms: _231  and  _232
REMARK   90  A    between atoms: _231  and  _234
REMARK   91  A    between atoms: _234  and  _235
REMARK   92  A    between atoms: _239  and  ZN_427
REMARK   93  A    between atoms: _240  and  _242
REMARK   94  A    between atoms: _242  and  _243
REMARK   95  A    between atoms: _242  and  _245
REMARK   96  A    between atoms: _245  and  _246
REMARK   97  A    between atoms: _248  and  _250
REMARK   98  A    between atoms: _250  and  _251
REMARK   99  A    between atoms: _250  and  _253
REMARK  100  A    between atoms: _253  and  _254
REMARK  101  A    between atoms: _259  and  _261
REMARK  102  A    between atoms: _261  and  _262
REMARK  103  A    between atoms: _261  and  _264
REMARK  104  A    between atoms: _264  and  _265
REMARK  105  A    between atoms: _265  and  _266
REMARK  106  A    between atoms: _266  and  _267
REMARK  107  A    between atoms: _276  and  _278
REMARK  108  A    between atoms: _278  and  _279
REMARK  109  A    between atoms: _278  and  _281
REMARK  110  A    between atoms: _281  and  _282
REMARK  111  A    between atoms: _285  and  _287
REMARK  112  A    between atoms: _287  and  _288
REMARK  113  A    between atoms: _287  and  _290
REMARK  114  A    between atoms: _294  and  _295
REMARK  115  A    between atoms: _300  and  _302
REMARK  116  A    between atoms: _302  and  _303
REMARK  117  A    between atoms: _302  and  _305
REMARK  118  A    between atoms: _305  and  _306
REMARK  119  A    between atoms: _306  and  _307
REMARK  120  A    between atoms: _307  and  _308
REMARK  121  A    between atoms: _308  and  _309
REMARK  122  A    between atoms: _313  and  _315
REMARK  123  A    between atoms: _315  and  _316
REMARK  124  A    between atoms: _315  and  _318
REMARK  125  A    between atoms: _318  and  _319
REMARK  126  A    between atoms: _325  and  _327
REMARK  127  A    between atoms: _327  and  _328
REMARK  128  A    between atoms: _327  and  _330
REMARK  129  A    between atoms: _330  and  _331
REMARK  130  A    between atoms: _334  and  _336
REMARK  131  A    between atoms: _336  and  _337
REMARK  132  A    between atoms: _336  and  _339
REMARK  133  A    between atoms: _339  and  _340
REMARK  134  A    between atoms: _340  and  _341
REMARK  135  A    between atoms: _341  and  _342
REMARK  136  A    between atoms: _351  and  _353
REMARK  137  A    between atoms: _353  and  _354
REMARK  138  A    between atoms: _356  and  _358
REMARK  139  A    between atoms: _358  and  _359
REMARK  140  A    between atoms: _361  and  _363
REMARK  141  A    between atoms: _363  and  _364
REMARK  142  A    between atoms: _363  and  _366
REMARK  143  A    between atoms: _366  and  _367
REMARK  144  A    between atoms: _370  and  _372
REMARK  145  A    between atoms: _372  and  _373
REMARK  146  A    between atoms: _372  and  _375
REMARK  147  A    between atoms: _375  and  _376
REMARK  148  A    between atoms: _381  and  _382
REMARK  149  A    between atoms: _384  and  _386
REMARK  150  A    between atoms: _386  and  _387
REMARK  151  A    between atoms: _386  and  _389
REMARK  152  A    between atoms: _389  and  _390
REMARK  153  A    between atoms: _393  and  _395
REMARK  154  A    between atoms: _395  and  _396
REMARK  155  A    between atoms: _398  and  _400
REMARK  156  A    between atoms: _400  and  _401
REMARK  157  A    between atoms: _400  and  _403
REMARK  158  A    between atoms: _403  and  _404
REMARK  159  A    between atoms: _408  and  _409
REMARK  160  A    between atoms: _414  and  _416
REMARK  161  A    between atoms: _416  and  _417
REMARK  162  A    between atoms: _416  and  _419
REMARK  163  A    between atoms: _419  and  _420
REMARK                            x       y       z     vdW  Elec       q    Type
REMARK                         _______ _______ _______ _____ _____    ______ ____
ROOT
ATOM      1  CA  HIS A   2     -30.420  29.858 -21.055  0.00  0.00    +0.155 C 
ENDROOT
BRANCH   1   4
ATOM      2  C   THR A   1     -31.153  28.187 -22.613  0.00  0.00    +0.241 C 
ATOM      3  O   THR A   1     -30.737  27.275 -21.893  0.00  0.00    -0.274 OA
ATOM      4  N   HIS A   2     -30.969  29.472 -22.336  0.00  0.00    -0.297 N 
ATOM      5  H   HIS A   2     -31.219  30.198 -23.037  0.00  0.00    +0.150 HD
BRANCH   2   6
ATOM      6  CA  THR A   1     -31.871  27.885 -23.909  0.00  0.00    +0.172 C 
BRANCH   6   7
ATOM      7  N   THR A   1     -31.711  26.453 -24.168  0.00  0.00    -0.236 NA
ATOM      8  H   THR A   1     -31.703  25.788 -23.368  0.00  0.00    +0.142 HD
ENDBRANCH   6   7
BRANCH   6   9
ATOM      9  CB  THR A   1     -33.347  28.333 -23.662  0.00  0.00    +0.135 C 
ATOM     10  CG2 THR A   1     -34.279  27.788 -24.723  0.00  0.00    +0.034 C 
BRANCH   9  11
ATOM     11  OG1 THR A   1     -33.777  27.891 -22.363  0.00  0.00    -0.383 OA
ATOM     12  HG1 THR A   1     -33.192  28.289 -21.670  0.00  0.00    +0.210 HD
ENDBRANCH   9  11
ENDBRANCH   6   9
ENDBRANCH   2   6
ENDBRANCH   1   4
BRANCH   1  13
ATOM     13  C   HIS A   2     -31.631  30.505 -20.369  0.00  0.00    +0.241 C 
ATOM     14  N   ASN A   3     -31.462  31.664 -19.734  0.00  0.00    -0.298 N 
ATOM     15  H   ASN A   3     -30.527  32.119 -19.737  0.00  0.00    +0.150 HD
ATOM     16  O   HIS A   2     -32.734  29.956 -20.452  0.00  0.00    -0.273 OA
BRANCH  14  17
ATOM     17  CA  ASN A   3     -32.579  32.306 -19.031  0.00  0.00    +0.146 C 
BRANCH  17  18
ATOM     18  C   ASN A   3     -33.658  32.969 -19.883  0.00  0.00    +0.227 C 
ATOM     19  O   ASN A   3     -34.736  33.285 -19.374  0.00  0.00    -0.286 OA
ENDBRANCH  17  18
BRANCH  17  20
ATOM     20  CB  ASN A   3     -32.060  33.340 -18.029  0.00  0.00    +0.112 C 
BRANCH  20  21
ATOM     21  CG  ASN A   3     -31.313  32.711 -16.872  0.00  0.00    +0.222 C 
ATOM     22  ND2 ASN A   3     -30.546  33.522 -16.151  0.00  0.00    -0.329 N 
ATOM     23 HD21 ASN A   3     -30.019  33.150 -15.335  0.00  0.00    +0.145 HD
ATOM     24 HD22 ASN A   3     -30.472  34.528 -16.403  0.00  0.00    +0.145 HD
ATOM     25  OD1 ASN A   3     -31.436  31.512 -16.618  0.00  0.00    -0.275 OA
ENDBRANCH  20  21
ENDBRANCH  17  20
ENDBRANCH  14  17
ENDBRANCH   1  13
BRANCH   1  26
ATOM     26  CB  HIS A   2     -29.242  30.831 -21.163  0.00  0.00    +0.076 C 
BRANCH  26  27
ATOM     27  CG  HIS A   2     -28.599  31.110 -19.840  0.00  0.00    +0.082 A 
ATOM     28  CD2 HIS A   2     -28.072  30.269 -18.916  0.00  0.00    +0.115 A 
ATOM     29  NE2 HIS A   2     -27.738  31.027 -17.820  0.00  0.00    -0.221 NA
ATOM     30  CE1 HIS A   2     -28.041  32.290 -18.065  0.00  0.00    +0.199 A 
ATOM     31  ND1 HIS A   2     -28.558  32.369 -19.278  0.00  0.00    -0.227 NA
ENDBRANCH  26  27
ENDBRANCH   1  26
TORSDOF 12
REMARK  Name = ../refined-set-2016/3k5x/3k5x_pocket.pdb
REMARK  163 active torsions:
REMARK  status: ('A' for Active; 'I' for Inactive)
REMARK    1  A    between atoms: _1  and  _3
REMARK    2  A    between atoms: _14  and  _17
REMARK    3  A    between atoms: _17  and  _18
REMARK    4  A    between atoms: _25  and  _26
REMARK    5  A    between atoms: _32  and  _34
REMARK    6  A    between atoms: _34  and  _35
REMARK    7  A    between atoms: _34  and  _37
REMARK    8  A    between atoms: _37  and  _38
REMARK    9  A    between atoms: _48  and  _50
REMARK   10  A    between atoms: _50  and  _51
REMARK   11  A    between atoms: _54  and  _56
REMARK   12  A    between atoms: _56  and  _57
REMARK   13  A    between atoms: _56  and  _59
REMARK   14  A    between atoms: _59  and  _60
REMARK   15  A    between atoms: _62  and  _64
REMARK   16  A    between atoms: _64  and  _65
REMARK   17  A    between atoms: _64  and  _67
REMARK   18  A    between atoms: _70  and  _72
REMARK   19  A    between atoms: _72  and  _73
REMARK   20  A    between atoms: _72  and  _75
REMARK   21  A    between atoms: _75  and  _76
REMARK   22  A    between atoms: _81  and  _82
REMARK   23  A    between atoms: _84  and  _86
REMARK   24  A    between atoms: _86  and  _87
REMARK   25  A    between atoms: _86  and  _89
REMARK   26  A    between atoms: _92  and  _94
REMARK   27  A    between atoms: _94  and  _95
REMARK   28  A    between atoms: _94  and  _97
REMARK   29  A    between atoms: _97  and  _98
REMARK   30  A    between atoms: _98  and  _99
REMARK   31  A    between atoms: _99  and  _100
REMARK   32  A    between atoms: _109  and  _111
REMARK   33  A    between atoms: _111  and  _112
REMARK   34  A    between atoms: _111  and  _114
REMARK   35  A    between atoms: _114  and  _115
REMARK   36  A    between atoms: _117  and  _119
REMARK   37  A    between atoms: _119  and  _120
REMARK   38  A    between atoms: _119  and  _122
REMARK   39  A    between atoms: _122  and  _123
REMARK   40  A    between atoms: _123  and  _124
REMARK   41  A    between atoms: _129  and  _131
REMARK   42  A    between atoms: _131  and  _132
REMARK   43  A    between atoms: _131  and  _134
REMARK   44  A    between atoms: _134  and  _135
REMARK   45  A    between atoms: _135  and  _136
REMARK   46  A    between atoms: _136  and  _137
REMARK   47  A    between atoms: _136  and  _138
REMARK   48  A    between atoms: _137  and  ZN_426
REMARK   49  A    between atoms: _138  and  ZN_427
REMARK   50  A    between atoms: _139  and  _141
REMARK   51  A    between atoms: _141  and  _142
REMARK   52  A    between atoms: _141  and  _144
REMARK   53  A    between atoms: _144  and  _145
REMARK   54  A    between atoms: _150  and  _151
REMARK   55  A    between atoms: _153  and  _155
REMARK   56  A    between atoms: _155  and  _156
REMARK   57  A    between atoms: _155  and  _158
REMARK   58  A    between atoms: _158  and  _159
REMARK   59  A    between atoms: _162  and  _164
REMARK   60  A    between atoms: _164  and  _165
REMARK   61  A    between atoms: _164  and  _167
REMARK   62  A    between atoms: _167  and  _168
REMARK   63  A    between atoms: _171  and  _173
REMARK   64  A    between atoms: _173  and  _174
REMARK   65  A    between atoms: _173  and  _176
REMARK   66  A    between atoms: _176  and  _177
REMARK   67  A    between atoms: _182  and  _184
REMARK   68  A    between atoms: _184  and  _185
REMARK   69  A    between atoms: _184  and  _187
REMARK   70  A    between atoms: _187  and  _188
REMARK   71  A    between atoms: _193  and  _195
REMARK   72  A    between atoms: _195  and  _196
REMARK   73  A    between atoms: _195  and  _198
REMARK   74  A    between atoms: _198  and  _199
REMARK   75  A    between atoms: _202  and  _204
REMARK   76  A    between atoms: _204  and  _205
REMARK   77  A    between atoms: _204  and  _207
REMARK   78  A    between atoms: _207  and  _208
REMARK   79  A    between atoms: _210  and  _212
REMARK   80  A    between atoms: _212  and  _213
REMARK   81  A    between atoms: _212  and  _215
REMARK   82  A    between atoms: _215  and  _216
REMARK   83  A    between atoms: _220  and  ZN_427
REMARK   84  A    between atoms: _221  and  _223
REMARK   85  A    between atoms: _223  and  _224
REMARK   86  A    between atoms: _223  and  _226
REMARK   87  A    between atoms: _226  and  _227
REMARK   88  A    between atoms: _229  and  _231
REMARK   89  A    between atoms: _231  and  _232
REMARK   90  A    between atoms: _231  and  _234
REMARK   91  A    between atoms: _234  and  _235
REMARK   92  A    between atoms: _239  and  ZN_427
REMARK   93  A    between atoms: _240  and  _242
REMARK   94  A    between atoms: _242  and  _243
REMARK   95  A    between atoms: _242  and  _245
REMARK   96  A    between atoms: _245  and  _246
REMARK   97  A    between atoms: _248  and  _250
REMARK   98  A    between atoms: _250  and  _251
REMARK   99  A    between atoms: _250  and  _253
REMARK  100  A    between atoms: _253  and  _254
REMARK  101  A    between atoms: _259  and  _261
REMARK  102  A    between atoms: _261  and  _262
REMARK  103  A    between atoms: _261  and  _264
REMARK  104  A    between atoms: _264  and  _265
REMARK  105  A    between atoms: _265  and  _266
REMARK  106  A    between atoms: _266  and  _267
REMARK  107  A    between atoms: _276  and  _278
REMARK  108  A    between atoms: _278  and  _279
REMARK  109  A    between atoms: _278  and  _281
REMARK  110  A    between atoms: _281  and  _282
REMARK  111  A    between atoms: _285  and  _287
REMARK  112  A    between atoms: _287  and  _288
REMARK  113  A    between atoms: _287  and  _290
REMARK  114  A    between atoms: _294  and  _295
REMARK  115  A    between atoms: _300  and  _302
REMARK  116  A    between atoms: _302  and  _303
REMARK  117  A    between atoms: _302  and  _305
REMARK  118  A    between atoms: _305  and  _306
REMARK  119  A    between atoms: _306  and  _307
REMARK  120  A    between atoms: _307  and  _308
REMARK  121  A    between atoms: _308  and  _309
REMARK  122  A    between atoms: _313  and  _315
REMARK  123  A    between atoms: _315  and  _316
REMARK  124  A    between atoms: _315  and  _318
REMARK  125  A    between atoms: _318  and  _319
REMARK  126  A    between atoms: _325  and  _327
REMARK  127  A    between atoms: _327  and  _328
REMARK  128  A    between atoms: _327  and  _330
REMARK  129  A    between atoms: _330  and  _331
REMARK  130  A    between atoms: _334  and  _336
REMARK  131  A    between atoms: _336  and  _337
REMARK  132  A    between atoms: _336  and  _339
REMARK  133  A    between atoms: _339  and  _340
REMARK  134  A    between atoms: _340  and  _341
REMARK  135  A    between atoms: _341  and  _342
REMARK  136  A    between atoms: _351  and  _353
REMARK  137  A    between atoms: _353  and  _354
REMARK  138  A    between atoms: _356  and  _358
REMARK  139  A    between atoms: _358  and  _359
REMARK  140  A    between atoms: _361  and  _363
REMARK  141  A    between atoms: _363  and  _364
REMARK  142  A    between atoms: _363  and  _366
REMARK  143  A    between atoms: _366  and  _367
REMARK  144  A    between atoms: _370  and  _372
REMARK  145  A    between atoms: _372  and  _373
REMARK  146  A    between atoms: _372  and  _375
REMARK  147  A    between atoms: _375  and  _376
REMARK  148  A    between atoms: _381  and  _382
REMARK  149  A    between atoms: _384  and  _386
REMARK  150  A    between atoms: _386  and  _387
REMARK  151  A    between atoms: _386  and  _389
REMARK  152  A    between atoms: _389  and  _390
REMARK  153  A    between atoms: _393  and  _395
REMARK  154  A    between atoms: _395  and  _396
REMARK  155  A    between atoms: _398  and  _400
REMARK  156  A    between atoms: _400  and  _401
REMARK  157  A    between atoms: _400  and  _403
REMARK  158  A    between atoms: _403  and  _404
REMARK  159  A    between atoms: _408  and  _409
REMARK  160  A    between atoms: _414  and  _416
REMARK  161  A    between atoms: _416  and  _417
REMARK  162  A    between atoms: _416  and  _419
REMARK  163  A    between atoms: _419  and  _420
REMARK                            x       y       z     vdW  Elec       q    Type
REMARK                         _______ _______ _______ _____ _____    ______ ____
ROOT
ATOM      1  CA  THR A   1     -37.497  31.794 -16.847  0.00  0.00    +0.160 C 
ENDROOT
BRANCH   1   2
ATOM      2  N   THR A   1     -37.504  30.502 -17.522  0.00  0.00    -0.237 NA
ATOM      3  H   THR A   1     -36.719  30.253 -18.157  0.00  0.00    +0.142 HD
ENDBRANCH   1   2
BRANCH   1   4
ATOM      4  CB  THR A   1     -36.131  32.042 -16.166  0.00  0.00    +0.134 C 
ATOM      5  CG2 THR A   1     -35.956  31.095 -14.982  0.00  0.00    +0.034 C 
BRANCH   4   6
ATOM      6  OG1 THR A   1     -35.072  31.814 -17.105  0.00  0.00    -0.383 OA
ATOM      7  HG1 THR A   1     -35.173  32.432 -17.872  0.00  0.00    +0.210 HD
ENDBRANCH   4   6
ENDBRANCH   1   4
BRANCH   1   8
ATOM      8  C   THR A   1     -37.856  32.974 -17.751  0.00  0.00    +0.227 C 
ATOM      9  O   THR A   1     -37.378  34.093 -17.555  0.00  0.00    -0.287 OA
ENDBRANCH   1   8
TORSDOF 4
REMARK  Name = ../refined-set-2016/3k5x/3k5x_pocket.pdb
REMARK  163 active torsions:
REMARK  status: ('A' for Active; 'I' for Inactive)
REMARK    1  A    between atoms: _1  and  _3
REMARK    2  A    between atoms: _14  and  _17
REMARK    3  A    between atoms: _17  and  _18
REMARK    4  A    between atoms: _25  and  _26
REMARK    5  A    between atoms: _32  and  _34
REMARK    6  A    between atoms: _34  and  _35
REMARK    7  A    between atoms: _34  and  _37
REMARK    8  A    between atoms: _37  and  _38
REMARK    9  A    between atoms: _48  and  _50
REMARK   10  A    between atoms: _50  and  _51
REMARK   11  A    between atoms: _54  and  _56
REMARK   12  A    between atoms: _56  and  _57
REMARK   13  A    between atoms: _56  and  _59
REMARK   14  A    between atoms: _59  and  _60
REMARK   15  A    between atoms: _62  and  _64
REMARK   16  A    between atoms: _64  and  _65
REMARK   17  A    between atoms: _64  and  _67
REMARK   18  A    between atoms: _70  and  _72
REMARK   19  A    between atoms: _72  and  _73
REMARK   20  A    between atoms: _72  and  _75
REMARK   21  A    between atoms: _75  and  _76
REMARK   22  A    between atoms: _81  and  _82
REMARK   23  A    between atoms: _84  and  _86
REMARK   24  A    between atoms: _86  and  _87
REMARK   25  A    between atoms: _86  and  _89
REMARK   26  A    between atoms: _92  and  _94
REMARK   27  A    between atoms: _94  and  _95
REMARK   28  A    between atoms: _94  and  _97
REMARK   29  A    between atoms: _97  and  _98
REMARK   30  A    between atoms: _98  and  _99
REMARK   31  A    between atoms: _99  and  _100
REMARK   32  A    between atoms: _109  and  _111
REMARK   33  A    between atoms: _111  and  _112
REMARK   34  A    between atoms: _111  and  _114
REMARK   35  A    between atoms: _114  and  _115
REMARK   36  A    between atoms: _117  and  _119
REMARK   37  A    between atoms: _119  and  _120
REMARK   38  A    between atoms: _119  and  _122
REMARK   39  A    between atoms: _122  and  _123
REMARK   40  A    between atoms: _123  and  _124
REMARK   41  A    between atoms: _129  and  _131
REMARK   42  A    between atoms: _131  and  _132
REMARK   43  A    between atoms: _131  and  _134
REMARK   44  A    between atoms: _134  and  _135
REMARK   45  A    between atoms: _135  and  _136
REMARK   46  A    between atoms: _136  and  _137
REMARK   47  A    between atoms: _136  and  _138
REMARK   48  A    between atoms: _137  and  ZN_426
REMARK   49  A    between atoms: _138  and  ZN_427
REMARK   50  A    between atoms: _139  and  _141
REMARK   51  A    between atoms: _141  and  _142
REMARK   52  A    between atoms: _141  and  _144
REMARK   53  A    between atoms: _144  and  _145
REMARK   54  A    between atoms: _150  and  _151
REMARK   55  A    between atoms: _153  and  _155
REMARK   56  A    between atoms: _155  and  _156
REMARK   57  A    between atoms: _155  and  _158
REMARK   58  A    between atoms: _158  and  _159
REMARK   59  A    between atoms: _162  and  _164
REMARK   60  A    between atoms: _164  and  _165
REMARK   61  A    between atoms: _164  and  _167
REMARK   62  A    between atoms: _167  and  _168
REMARK   63  A    between atoms: _171  and  _173
REMARK   64  A    between atoms: _173  and  _174
REMARK   65  A    between atoms: _173  and  _176
REMARK   66  A    between atoms: _176  and  _177
REMARK   67  A    between atoms: _182  and  _184
REMARK   68  A    between atoms: _184  and  _185
REMARK   69  A    between atoms: _184  and  _187
REMARK   70  A    between atoms: _187  and  _188
REMARK   71  A    between atoms: _193  and  _195
REMARK   72  A    between atoms: _195  and  _196
REMARK   73  A    between atoms: _195  and  _198
REMARK   74  A    between atoms: _198  and  _199
REMARK   75  A    between atoms: _202  and  _204
REMARK   76  A    between atoms: _204  and  _205
REMARK   77  A    between atoms: _204  and  _207
REMARK   78  A    between atoms: _207  and  _208
REMARK   79  A    between atoms: _210  and  _212
REMARK   80  A    between atoms: _212  and  _213
REMARK   81  A    between atoms: _212  and  _215
REMARK   82  A    between atoms: _215  and  _216
REMARK   83  A    between atoms: _220  and  ZN_427
REMARK   84  A    between atoms: _221  and  _223
REMARK   85  A    between atoms: _223  and  _224
REMARK   86  A    between atoms: _223  and  _226
REMARK   87  A    between atoms: _226  and  _227
REMARK   88  A    between atoms: _229  and  _231
REMARK   89  A    between atoms: _231  and  _232
REMARK   90  A    between atoms: _231  and  _234
REMARK   91  A    between atoms: _234  and  _235
REMARK   92  A    between atoms: _239  and  ZN_427
REMARK   93  A    between atoms: _240  and  _242
REMARK   94  A    between atoms: _242  and  _243
REMARK   95  A    between atoms: _242  and  _245
REMARK   96  A    between atoms: _245  and  _246
REMARK   97  A    between atoms: _248  and  _250
REMARK   98  A    between atoms: _250  and  _251
REMARK   99  A    between atoms: _250  and  _253
REMARK  100  A    between atoms: _253  and  _254
REMARK  101  A    between atoms: _259  and  _261
REMARK  102  A    between atoms: _261  and  _262
REMARK  103  A    between atoms: _261  and  _264
REMARK  104  A    between atoms: _264  and  _265
REMARK  105  A    between atoms: _265  and  _266
REMARK  106  A    between atoms: _266  and  _267
REMARK  107  A    between atoms: _276  and  _278
REMARK  108  A    between atoms: _278  and  _279
REMARK  109  A    between atoms: _278  and  _281
REMARK  110  A    between atoms: _281  and  _282
REMARK  111  A    between atoms: _285  and  _287
REMARK  112  A    between atoms: _287  and  _288
REMARK  113  A    between atoms: _287  and  _290
REMARK  114  A    between atoms: _294  and  _295
REMARK  115  A    between atoms: _300  and  _302
REMARK  116  A    between atoms: _302  and  _303
REMARK  117  A    between atoms: _302  and  _305
REMARK  118  A    between atoms: _305  and  _306
REMARK  119  A    between atoms: _306  and  _307
REMARK  120  A    between atoms: _307  and  _308
REMARK  121  A    between atoms: _308  and  _309
REMARK  122  A    between atoms: _313  and  _315
REMARK  123  A    between atoms: _315  and  _316
REMARK  124  A    between atoms: _315  and  _318
REMARK  125  A    between atoms: _318  and  _319
REMARK  126  A    between atoms: _325  and  _327
REMARK  127  A    between atoms: _327  and  _328
REMARK  128  A    between atoms: _327  and  _330
REMARK  129  A    between atoms: _330  and  _331
REMARK  130  A    between atoms: _334  and  _336
REMARK  131  A    between atoms: _336  and  _337
REMARK  132  A    between atoms: _336  and  _339
REMARK  133  A    between atoms: _339  and  _340
REMARK  134  A    between atoms: _340  and  _341
REMARK  135  A    between atoms: _341  and  _342
REMARK  136  A    between atoms: _351  and  _353
REMARK  137  A    between atoms: _353  and  _354
REMARK  138  A    between atoms: _356  and  _358
REMARK  139  A    between atoms: _358  and  _359
REMARK  140  A    between atoms: _361  and  _363
REMARK  141  A    between atoms: _363  and  _364
REMARK  142  A    between atoms: _363  and  _366
REMARK  143  A    between atoms: _366  and  _367
REMARK  144  A    between atoms: _370  and  _372
REMARK  145  A    between atoms: _372  and  _373
REMARK  146  A    between atoms: _372  and  _375
REMARK  147  A    between atoms: _375  and  _376
REMARK  148  A    between atoms: _381  and  _382
REMARK  149  A    between atoms: _384  and  _386
REMARK  150  A    between atoms: _386  and  _387
REMARK  151  A    between atoms: _386  and  _389
REMARK  152  A    between atoms: _389  and  _390
REMARK  153  A    between atoms: _393  and  _395
REMARK  154  A    between atoms: _395  and  _396
REMARK  155  A    between atoms: _398  and  _400
REMARK  156  A    between atoms: _400  and  _401
REMARK  157  A    between atoms: _400  and  _403
REMARK  158  A    between atoms: _403  and  _404
REMARK  159  A    between atoms: _408  and  _409
REMARK  160  A    between atoms: _414  and  _416
REMARK  161  A    between atoms: _416  and  _417
REMARK  162  A    between atoms: _416  and  _419
REMARK  163  A    between atoms: _419  and  _420
REMARK                            x       y       z     vdW  Elec       q    Type
REMARK                         _______ _______ _______ _____ _____    ______ ____
ROOT
ATOM      1  CB  HIS A   1     -37.876  26.996  -8.568  0.00  0.00    +0.072 C 
ENDROOT
BRANCH   1   2
ATOM      2  CG  HIS A   1     -37.174  28.187  -9.144  0.00  0.00    +0.082 A 
ATOM      3  CD2 HIS A   1     -36.947  29.421  -8.633  0.00  0.00    +0.115 A 
ATOM      4  NE2 HIS A   1     -36.300  30.149  -9.602  0.00  0.00    -0.221 NA
ATOM      5  CE1 HIS A   1     -36.133  29.388 -10.670  0.00  0.00    +0.199 A 
ATOM      6  ND1 HIS A   1     -36.651  28.199 -10.419  0.00  0.00    -0.227 NA
ENDBRANCH   1   2
BRANCH   1   7
ATOM      7  CA  HIS A   1     -39.260  26.748  -9.176  0.00  0.00    +0.139 C 
BRANCH   7   8
ATOM      8  N   HIS A   1     -39.941  25.657  -8.491  0.00  0.00    -0.239 NA
ATOM      9  H   HIS A   1     -39.788  24.687  -8.833  0.00  0.00    +0.142 HD
ENDBRANCH   7   8
BRANCH   7  10
ATOM     10  C   HIS A   1     -39.131  26.279 -10.621  0.00  0.00    +0.224 C 
ATOM     11  O   HIS A   1     -38.868  25.105 -10.870  0.00  0.00    -0.287 OA
ENDBRANCH   7  10
ENDBRANCH   1   7
TORSDOF 4
REMARK  Name = ../refined-set-2016/3k5x/3k5x_pocket.pdb
REMARK  163 active torsions:
REMARK  status: ('A' for Active; 'I' for Inactive)
REMARK    1  A    between atoms: _1  and  _3
REMARK    2  A    between atoms: _14  and  _17
REMARK    3  A    between atoms: _17  and  _18
REMARK    4  A    between atoms: _25  and  _26
REMARK    5  A    between atoms: _32  and  _34
REMARK    6  A    between atoms: _34  and  _35
REMARK    7  A    between atoms: _34  and  _37
REMARK    8  A    between atoms: _37  and  _38
REMARK    9  A    between atoms: _48  and  _50
REMARK   10  A    between atoms: _50  and  _51
REMARK   11  A    between atoms: _54  and  _56
REMARK   12  A    between atoms: _56  and  _57
REMARK   13  A    between atoms: _56  and  _59
REMARK   14  A    between atoms: _59  and  _60
REMARK   15  A    between atoms: _62  and  _64
REMARK   16  A    between atoms: _64  and  _65
REMARK   17  A    between atoms: _64  and  _67
REMARK   18  A    between atoms: _70  and  _72
REMARK   19  A    between atoms: _72  and  _73
REMARK   20  A    between atoms: _72  and  _75
REMARK   21  A    between atoms: _75  and  _76
REMARK   22  A    between atoms: _81  and  _82
REMARK   23  A    between atoms: _84  and  _86
REMARK   24  A    between atoms: _86  and  _87
REMARK   25  A    between atoms: _86  and  _89
REMARK   26  A    between atoms: _92  and  _94
REMARK   27  A    between atoms: _94  and  _95
REMARK   28  A    between atoms: _94  and  _97
REMARK   29  A    between atoms: _97  and  _98
REMARK   30  A    between atoms: _98  and  _99
REMARK   31  A    between atoms: _99  and  _100
REMARK   32  A    between atoms: _109  and  _111
REMARK   33  A    between atoms: _111  and  _112
REMARK   34  A    between atoms: _111  and  _114
REMARK   35  A    between atoms: _114  and  _115
REMARK   36  A    between atoms: _117  and  _119
REMARK   37  A    between atoms: _119  and  _120
REMARK   38  A    between atoms: _119  and  _122
REMARK   39  A    between atoms: _122  and  _123
REMARK   40  A    between atoms: _123  and  _124
REMARK   41  A    between atoms: _129  and  _131
REMARK   42  A    between atoms: _131  and  _132
REMARK   43  A    between atoms: _131  and  _134
REMARK   44  A    between atoms: _134  and  _135
REMARK   45  A    between atoms: _135  and  _136
REMARK   46  A    between atoms: _136  and  _137
REMARK   47  A    between atoms: _136  and  _138
REMARK   48  A    between atoms: _137  and  ZN_426
REMARK   49  A    between atoms: _138  and  ZN_427
REMARK   50  A    between atoms: _139  and  _141
REMARK   51  A    between atoms: _141  and  _142
REMARK   52  A    between atoms: _141  and  _144
REMARK   53  A    between atoms: _144  and  _145
REMARK   54  A    between atoms: _150  and  _151
REMARK   55  A    between atoms: _153  and  _155
REMARK   56  A    between atoms: _155  and  _156
REMARK   57  A    between atoms: _155  and  _158
REMARK   58  A    between atoms: _158  and  _159
REMARK   59  A    between atoms: _162  and  _164
REMARK   60  A    between atoms: _164  and  _165
REMARK   61  A    between atoms: _164  and  _167
REMARK   62  A    between atoms: _167  and  _168
REMARK   63  A    between atoms: _171  and  _173
REMARK   64  A    between atoms: _173  and  _174
REMARK   65  A    between atoms: _173  and  _176
REMARK   66  A    between atoms: _176  and  _177
REMARK   67  A    between atoms: _182  and  _184
REMARK   68  A    between atoms: _184  and  _185
REMARK   69  A    between atoms: _184  and  _187
REMARK   70  A    between atoms: _187  and  _188
REMARK   71  A    between atoms: _193  and  _195
REMARK   72  A    between atoms: _195  and  _196
REMARK   73  A    between atoms: _195  and  _198
REMARK   74  A    between atoms: _198  and  _199
REMARK   75  A    between atoms: _202  and  _204
REMARK   76  A    between atoms: _204  and  _205
REMARK   77  A    between atoms: _204  and  _207
REMARK   78  A    between atoms: _207  and  _208
REMARK   79  A    between atoms: _210  and  _212
REMARK   80  A    between atoms: _212  and  _213
REMARK   81  A    between atoms: _212  and  _215
REMARK   82  A    between atoms: _215  and  _216
REMARK   83  A    between atoms: _220  and  ZN_427
REMARK   84  A    between atoms: _221  and  _223
REMARK   85  A    between atoms: _223  and  _224
REMARK   86  A    between atoms: _223  and  _226
REMARK   87  A    between atoms: _226  and  _227
REMARK   88  A    between atoms: _229  and  _231
REMARK   89  A    between atoms: _231  and  _232
REMARK   90  A    between atoms: _231  and  _234
REMARK   91  A    between atoms: _234  and  _235
REMARK   92  A    between atoms: _239  and  ZN_427
REMARK   93  A    between atoms: _240  and  _242
REMARK   94  A    between atoms: _242  and  _243
REMARK   95  A    between atoms: _242  and  _245
REMARK   96  A    between atoms: _245  and  _246
REMARK   97  A    between atoms: _248  and  _250
REMARK   98  A    between atoms: _250  and  _251
REMARK   99  A    between atoms: _250  and  _253
REMARK  100  A    between atoms: _253  and  _254
REMARK  101  A    between atoms: _259  and  _261
REMARK  102  A    between atoms: _261  and  _262
REMARK  103  A    between atoms: _261  and  _264
REMARK  104  A    between atoms: _264  and  _265
REMARK  105  A    between atoms: _265  and  _266
REMARK  106  A    between atoms: _266  and  _267
REMARK  107  A    between atoms: _276  and  _278
REMARK  108  A    between atoms: _278  and  _279
REMARK  109  A    between atoms: _278  and  _281
REMARK  110  A    between atoms: _281  and  _282
REMARK  111  A    between atoms: _285  and  _287
REMARK  112  A    between atoms: _287  and  _288
REMARK  113  A    between atoms: _287  and  _290
REMARK  114  A    between atoms: _294  and  _295
REMARK  115  A    between atoms: _300  and  _302
REMARK  116  A    between atoms: _302  and  _303
REMARK  117  A    between atoms: _302  and  _305
REMARK  118  A    between atoms: _305  and  _306
REMARK  119  A    between atoms: _306  and  _307
REMARK  120  A    between atoms: _307  and  _308
REMARK  121  A    between atoms: _308  and  _309
REMARK  122  A    between atoms: _313  and  _315
REMARK  123  A    between atoms: _315  and  _316
REMARK  124  A    between atoms: _315  and  _318
REMARK  125  A    between atoms: _318  and  _319
REMARK  126  A    between atoms: _325  and  _327
REMARK  127  A    between atoms: _327  and  _328
REMARK  128  A    between atoms: _327  and  _330
REMARK  129  A    between atoms: _330  and  _331
REMARK  130  A    between atoms: _334  and  _336
REMARK  131  A    between atoms: _336  and  _337
REMARK  132  A    between atoms: _336  and  _339
REMARK  133  A    between atoms: _339  and  _340
REMARK  134  A    between atoms: _340  and  _341
REMARK  135  A    between atoms: _341  and  _342
REMARK  136  A    between atoms: _351  and  _353
REMARK  137  A    between atoms: _353  and  _354
REMARK  138  A    between atoms: _356  and  _358
REMARK  139  A    between atoms: _358  and  _359
REMARK  140  A    between atoms: _361  and  _363
REMARK  141  A    between atoms: _363  and  _364
REMARK  142  A    between atoms: _363  and  _366
REMARK  143  A    between atoms: _366  and  _367
REMARK  144  A    between atoms: _370  and  _372
REMARK  145  A    between atoms: _372  and  _373
REMARK  146  A    between atoms: _372  and  _375
REMARK  147  A    between atoms: _375  and  _376
REMARK  148  A    between atoms: _381  and  _382
REMARK  149  A    between atoms: _384  and  _386
REMARK  150  A    between atoms: _386  and  _387
REMARK  151  A    between atoms: _386  and  _389
REMARK  152  A    between atoms: _389  and  _390
REMARK  153  A    between atoms: _393  and  _395
REMARK  154  A    between atoms: _395  and  _396
REMARK  155  A    between atoms: _398  and  _400
REMARK  156  A    between atoms: _400  and  _401
REMARK  157  A    between atoms: _400  and  _403
REMARK  158  A    between atoms: _403  and  _404
REMARK  159  A    between atoms: _408  and  _409
REMARK  160  A    between atoms: _414  and  _416
REMARK  161  A    between atoms: _416  and  _417
REMARK  162  A    between atoms: _416  and  _419
REMARK  163  A    between atoms: _419  and  _420
REMARK                            x       y       z     vdW  Elec       q    Type
REMARK                         _______ _______ _______ _____ _____    ______ ____
ROOT
ATOM      1  NE  ARG A   1     -31.779  26.971 -14.250  0.00  0.00    -0.265 N 
ATOM      2  HE  ARG A   1     -31.126  27.753 -14.043  0.00  0.00    +0.259 HD
ATOM      3  CZ  ARG A   1     -31.284  25.736 -14.204  0.00  0.00    +0.342 C 
ATOM      4  NH2 ARG A   1     -30.000  25.559 -13.923  0.00  0.00    -0.292 N 
ATOM      5 HH21 ARG A   1     -29.389  26.381 -13.741  0.00  0.00    +0.255 HD
ATOM      6 HH22 ARG A   1     -29.604  24.598 -13.885  0.00  0.00    +0.255 HD
ATOM      7  NH1 ARG A   1     -32.053  24.682 -14.453  0.00  0.00    -0.292 N 
ATOM      8 HH11 ARG A   1     -31.651  23.724 -14.413  0.00  0.00    +0.255 HD
ATOM      9 HH12 ARG A   1     -33.057  24.815 -14.688  0.00  0.00    +0.255 HD
ENDROOT
BRANCH   1  10
ATOM     10  CD  ARG A   1     -33.163  27.322 -14.567  0.00  0.00    +0.174 C 
BRANCH  10  11
ATOM     11  CG  ARG A   1     -33.927  27.816 -13.340  0.00  0.00    +0.045 C 
BRANCH  11  12
ATOM     12  CB  ARG A   1     -34.388  26.655 -12.480  0.00  0.00    +0.029 C 
BRANCH  12  13
ATOM     13  CA  ARG A   1     -35.536  25.860 -13.108  0.00  0.00    +0.133 C 
BRANCH  13  14
ATOM     14  N   ARG A   1     -36.825  26.436 -12.736  0.00  0.00    -0.239 NA
ATOM     15  H   ARG A   1     -36.895  27.051 -11.900  0.00  0.00    +0.142 HD
ENDBRANCH  13  14
BRANCH  13  16
ATOM     16  C   ARG A   1     -35.419  24.392 -12.727  0.00  0.00    +0.224 C 
ATOM     17  O   ARG A   1     -34.480  23.712 -13.149  0.00  0.00    -0.287 OA
ENDBRANCH  13  16
ENDBRANCH  12  13
ENDBRANCH  11  12
ENDBRANCH  10  11
ENDBRANCH   1  10
TORSDOF 6
REMARK  Name = ../refined-set-2016/3k5x/3k5x_pocket.pdb
REMARK  163 active torsions:
REMARK  status: ('A' for Active; 'I' for Inactive)
REMARK    1  A    between atoms: _1  and  _3
REMARK    2  A    between atoms: _14  and  _17
REMARK    3  A    between atoms: _17  and  _18
REMARK    4  A    between atoms: _25  and  _26
REMARK    5  A    between atoms: _32  and  _34
REMARK    6  A    between atoms: _34  and  _35
REMARK    7  A    between atoms: _34  and  _37
REMARK    8  A    between atoms: _37  and  _38
REMARK    9  A    between atoms: _48  and  _50
REMARK   10  A    between atoms: _50  and  _51
REMARK   11  A    between atoms: _54  and  _56
REMARK   12  A    between atoms: _56  and  _57
REMARK   13  A    between atoms: _56  and  _59
REMARK   14  A    between atoms: _59  and  _60
REMARK   15  A    between atoms: _62  and  _64
REMARK   16  A    between atoms: _64  and  _65
REMARK   17  A    between atoms: _64  and  _67
REMARK   18  A    between atoms: _70  and  _72
REMARK   19  A    between atoms: _72  and  _73
REMARK   20  A    between atoms: _72  and  _75
REMARK   21  A    between atoms: _75  and  _76
REMARK   22  A    between atoms: _81  and  _82
REMARK   23  A    between atoms: _84  and  _86
REMARK   24  A    between atoms: _86  and  _87
REMARK   25  A    between atoms: _86  and  _89
REMARK   26  A    between atoms: _92  and  _94
REMARK   27  A    between atoms: _94  and  _95
REMARK   28  A    between atoms: _94  and  _97
REMARK   29  A    between atoms: _97  and  _98
REMARK   30  A    between atoms: _98  and  _99
REMARK   31  A    between atoms: _99  and  _100
REMARK   32  A    between atoms: _109  and  _111
REMARK   33  A    between atoms: _111  and  _112
REMARK   34  A    between atoms: _111  and  _114
REMARK   35  A    between atoms: _114  and  _115
REMARK   36  A    between atoms: _117  and  _119
REMARK   37  A    between atoms: _119  and  _120
REMARK   38  A    between atoms: _119  and  _122
REMARK   39  A    between atoms: _122  and  _123
REMARK   40  A    between atoms: _123  and  _124
REMARK   41  A    between atoms: _129  and  _131
REMARK   42  A    between atoms: _131  and  _132
REMARK   43  A    between atoms: _131  and  _134
REMARK   44  A    between atoms: _134  and  _135
REMARK   45  A    between atoms: _135  and  _136
REMARK   46  A    between atoms: _136  and  _137
REMARK   47  A    between atoms: _136  and  _138
REMARK   48  A    between atoms: _137  and  ZN_426
REMARK   49  A    between atoms: _138  and  ZN_427
REMARK   50  A    between atoms: _139  and  _141
REMARK   51  A    between atoms: _141  and  _142
REMARK   52  A    between atoms: _141  and  _144
REMARK   53  A    between atoms: _144  and  _145
REMARK   54  A    between atoms: _150  and  _151
REMARK   55  A    between atoms: _153  and  _155
REMARK   56  A    between atoms: _155  and  _156
REMARK   57  A    between atoms: _155  and  _158
REMARK   58  A    between atoms: _158  and  _159
REMARK   59  A    between atoms: _162  and  _164
REMARK   60  A    between atoms: _164  and  _165
REMARK   61  A    between atoms: _164  and  _167
REMARK   62  A    between atoms: _167  and  _168
REMARK   63  A    between atoms: _171  and  _173
REMARK   64  A    between atoms: _173  and  _174
REMARK   65  A    between atoms: _173  and  _176
REMARK   66  A    between atoms: _176  and  _177
REMARK   67  A    between atoms: _182  and  _184
REMARK   68  A    between atoms: _184  and  _185
REMARK   69  A    between atoms: _184  and  _187
REMARK   70  A    between atoms: _187  and  _188
REMARK   71  A    between atoms: _193  and  _195
REMARK   72  A    between atoms: _195  and  _196
REMARK   73  A    between atoms: _195  and  _198
REMARK   74  A    between atoms: _198  and  _199
REMARK   75  A    between atoms: _202  and  _204
REMARK   76  A    between atoms: _204  and  _205
REMARK   77  A    between atoms: _204  and  _207
REMARK   78  A    between atoms: _207  and  _208
REMARK   79  A    between atoms: _210  and  _212
REMARK   80  A    between atoms: _212  and  _213
REMARK   81  A    between atoms: _212  and  _215
REMARK   82  A    between atoms: _215  and  _216
REMARK   83  A    between atoms: _220  and  ZN_427
REMARK   84  A    between atoms: _221  and  _223
REMARK   85  A    between atoms: _223  and  _224
REMARK   86  A    between atoms: _223  and  _226
REMARK   87  A    between atoms: _226  and  _227
REMARK   88  A    between atoms: _229  and  _231
REMARK   89  A    between atoms: _231  and  _232
REMARK   90  A    between atoms: _231  and  _234
REMARK   91  A    between atoms: _234  and  _235
REMARK   92  A    between atoms: _239  and  ZN_427
REMARK   93  A    between atoms: _240  and  _242
REMARK   94  A    between atoms: _242  and  _243
REMARK   95  A    between atoms: _242  and  _245
REMARK   96  A    between atoms: _245  and  _246
REMARK   97  A    between atoms: _248  and  _250
REMARK   98  A    between atoms: _250  and  _251
REMARK   99  A    between atoms: _250  and  _253
REMARK  100  A    between atoms: _253  and  _254
REMARK  101  A    between atoms: _259  and  _261
REMARK  102  A    between atoms: _261  and  _262
REMARK  103  A    between atoms: _261  and  _264
REMARK  104  A    between atoms: _264  and  _265
REMARK  105  A    between atoms: _265  and  _266
REMARK  106  A    between atoms: _266  and  _267
REMARK  107  A    between atoms: _276  and  _278
REMARK  108  A    between atoms: _278  and  _279
REMARK  109  A    between atoms: _278  and  _281
REMARK  110  A    between atoms: _281  and  _282
REMARK  111  A    between atoms: _285  and  _287
REMARK  112  A    between atoms: _287  and  _288
REMARK  113  A    between atoms: _287  and  _290
REMARK  114  A    between atoms: _294  and  _295
REMARK  115  A    between atoms: _300  and  _302
REMARK  116  A    between atoms: _302  and  _303
REMARK  117  A    between atoms: _302  and  _305
REMARK  118  A    between atoms: _305  and  _306
REMARK  119  A    between atoms: _306  and  _307
REMARK  120  A    between atoms: _307  and  _308
REMARK  121  A    between atoms: _308  and  _309
REMARK  122  A    between atoms: _313  and  _315
REMARK  123  A    between atoms: _315  and  _316
REMARK  124  A    between atoms: _315  and  _318
REMARK  125  A    between atoms: _318  and  _319
REMARK  126  A    between atoms: _325  and  _327
REMARK  127  A    between atoms: _327  and  _328
REMARK  128  A    between atoms: _327  and  _330
REMARK  129  A    between atoms: _330  and  _331
REMARK  130  A    between atoms: _334  and  _336
REMARK  131  A    between atoms: _336  and  _337
REMARK  132  A    between atoms: _336  and  _339
REMARK  133  A    between atoms: _339  and  _340
REMARK  134  A    between atoms: _340  and  _341
REMARK  135  A    between atoms: _341  and  _342
REMARK  136  A    between atoms: _351  and  _353
REMARK  137  A    between atoms: _353  and  _354
REMARK  138  A    between atoms: _356  and  _358
REMARK  139  A    between atoms: _358  and  _359
REMARK  140  A    between atoms: _361  and  _363
REMARK  141  A    between atoms: _363  and  _364
REMARK  142  A    between atoms: _363  and  _366
REMARK  143  A    between atoms: _366  and  _367
REMARK  144  A    between atoms: _370  and  _372
REMARK  145  A    between atoms: _372  and  _373
REMARK  146  A    between atoms: _372  and  _375
REMARK  147  A    between atoms: _375  and  _376
REMARK  148  A    between atoms: _381  and  _382
REMARK  149  A    between atoms: _384  and  _386
REMARK  150  A    between atoms: _386  and  _387
REMARK  151  A    between atoms: _386  and  _389
REMARK  152  A    between atoms: _389  and  _390
REMARK  153  A    between atoms: _393  and  _395
REMARK  154  A    between atoms: _395  and  _396
REMARK  155  A    between atoms: _398  and  _400
REMARK  156  A    between atoms: _400  and  _401
REMARK  157  A    between atoms: _400  and  _403
REMARK  158  A    between atoms: _403  and  _404
REMARK  159  A    between atoms: _408  and  _409
REMARK  160  A    between atoms: _414  and  _416
REMARK  161  A    between atoms: _416  and  _417
REMARK  162  A    between atoms: _416  and  _419
REMARK  163  A    between atoms: _419  and  _420
REMARK                            x       y       z     vdW  Elec       q    Type
REMARK                         _______ _______ _______ _____ _____    ______ ____
ROOT
ATOM      1  CA  THR A   1     -27.642  21.009  -8.903  0.00  0.00    +0.160 C 
ENDROOT
BRANCH   1   2
ATOM      2  N   THR A   1     -28.508  19.864  -9.127  0.00  0.00    -0.237 NA
ATOM      3  H   THR A   1     -29.542  19.977  -9.102  0.00  0.00    +0.142 HD
ENDBRANCH   1   2
BRANCH   1   4
ATOM      4  C   THR A   1     -27.744  21.503  -7.462  0.00  0.00    +0.227 C 
ATOM      5  O   THR A   1     -28.683  21.156  -6.735  0.00  0.00    -0.287 OA
ENDBRANCH   1   4
BRANCH   1   6
ATOM      6  CB  THR A   1     -27.929  22.145  -9.911  0.00  0.00    +0.134 C 
ATOM      7  CG2 THR A   1     -29.219  22.880  -9.570  0.00  0.00    +0.034 C 
BRANCH   6   8
ATOM      8  OG1 THR A   1     -26.829  23.063  -9.901  0.00  0.00    -0.383 OA
ATOM      9  HG1 THR A   1     -26.001  22.587 -10.160  0.00  0.00    +0.210 HD
ENDBRANCH   6   8
ENDBRANCH   1   6
TORSDOF 4
REMARK  Name = ../refined-set-2016/3k5x/3k5x_pocket.pdb
REMARK  163 active torsions:
REMARK  status: ('A' for Active; 'I' for Inactive)
REMARK    1  A    between atoms: _1  and  _3
REMARK    2  A    between atoms: _14  and  _17
REMARK    3  A    between atoms: _17  and  _18
REMARK    4  A    between atoms: _25  and  _26
REMARK    5  A    between atoms: _32  and  _34
REMARK    6  A    between atoms: _34  and  _35
REMARK    7  A    between atoms: _34  and  _37
REMARK    8  A    between atoms: _37  and  _38
REMARK    9  A    between atoms: _48  and  _50
REMARK   10  A    between atoms: _50  and  _51
REMARK   11  A    between atoms: _54  and  _56
REMARK   12  A    between atoms: _56  and  _57
REMARK   13  A    between atoms: _56  and  _59
REMARK   14  A    between atoms: _59  and  _60
REMARK   15  A    between atoms: _62  and  _64
REMARK   16  A    between atoms: _64  and  _65
REMARK   17  A    between atoms: _64  and  _67
REMARK   18  A    between atoms: _70  and  _72
REMARK   19  A    between atoms: _72  and  _73
REMARK   20  A    between atoms: _72  and  _75
REMARK   21  A    between atoms: _75  and  _76
REMARK   22  A    between atoms: _81  and  _82
REMARK   23  A    between atoms: _84  and  _86
REMARK   24  A    between atoms: _86  and  _87
REMARK   25  A    between atoms: _86  and  _89
REMARK   26  A    between atoms: _92  and  _94
REMARK   27  A    between atoms: _94  and  _95
REMARK   28  A    between atoms: _94  and  _97
REMARK   29  A    between atoms: _97  and  _98
REMARK   30  A    between atoms: _98  and  _99
REMARK   31  A    between atoms: _99  and  _100
REMARK   32  A    between atoms: _109  and  _111
REMARK   33  A    between atoms: _111  and  _112
REMARK   34  A    between atoms: _111  and  _114
REMARK   35  A    between atoms: _114  and  _115
REMARK   36  A    between atoms: _117  and  _119
REMARK   37  A    between atoms: _119  and  _120
REMARK   38  A    between atoms: _119  and  _122
REMARK   39  A    between atoms: _122  and  _123
REMARK   40  A    between atoms: _123  and  _124
REMARK   41  A    between atoms: _129  and  _131
REMARK   42  A    between atoms: _131  and  _132
REMARK   43  A    between atoms: _131  and  _134
REMARK   44  A    between atoms: _134  and  _135
REMARK   45  A    between atoms: _135  and  _136
REMARK   46  A    between atoms: _136  and  _137
REMARK   47  A    between atoms: _136  and  _138
REMARK   48  A    between atoms: _137  and  ZN_426
REMARK   49  A    between atoms: _138  and  ZN_427
REMARK   50  A    between atoms: _139  and  _141
REMARK   51  A    between atoms: _141  and  _142
REMARK   52  A    between atoms: _141  and  _144
REMARK   53  A    between atoms: _144  and  _145
REMARK   54  A    between atoms: _150  and  _151
REMARK   55  A    between atoms: _153  and  _155
REMARK   56  A    between atoms: _155  and  _156
REMARK   57  A    between atoms: _155  and  _158
REMARK   58  A    between atoms: _158  and  _159
REMARK   59  A    between atoms: _162  and  _164
REMARK   60  A    between atoms: _164  and  _165
REMARK   61  A    between atoms: _164  and  _167
REMARK   62  A    between atoms: _167  and  _168
REMARK   63  A    between atoms: _171  and  _173
REMARK   64  A    between atoms: _173  and  _174
REMARK   65  A    between atoms: _173  and  _176
REMARK   66  A    between atoms: _176  and  _177
REMARK   67  A    between atoms: _182  and  _184
REMARK   68  A    between atoms: _184  and  _185
REMARK   69  A    between atoms: _184  and  _187
REMARK   70  A    between atoms: _187  and  _188
REMARK   71  A    between atoms: _193  and  _195
REMARK   72  A    between atoms: _195  and  _196
REMARK   73  A    between atoms: _195  and  _198
REMARK   74  A    between atoms: _198  and  _199
REMARK   75  A    between atoms: _202  and  _204
REMARK   76  A    between atoms: _204  and  _205
REMARK   77  A    between atoms: _204  and  _207
REMARK   78  A    between atoms: _207  and  _208
REMARK   79  A    between atoms: _210  and  _212
REMARK   80  A    between atoms: _212  and  _213
REMARK   81  A    between atoms: _212  and  _215
REMARK   82  A    between atoms: _215  and  _216
REMARK   83  A    between atoms: _220  and  ZN_427
REMARK   84  A    between atoms: _221  and  _223
REMARK   85  A    between atoms: _223  and  _224
REMARK   86  A    between atoms: _223  and  _226
REMARK   87  A    between atoms: _226  and  _227
REMARK   88  A    between atoms: _229  and  _231
REMARK   89  A    between atoms: _231  and  _232
REMARK   90  A    between atoms: _231  and  _234
REMARK   91  A    between atoms: _234  and  _235
REMARK   92  A    between atoms: _239  and  ZN_427
REMARK   93  A    between atoms: _240  and  _242
REMARK   94  A    between atoms: _242  and  _243
REMARK   95  A    between atoms: _242  and  _245
REMARK   96  A    between atoms: _245  and  _246
REMARK   97  A    between atoms: _248  and  _250
REMARK   98  A    between atoms: _250  and  _251
REMARK   99  A    between atoms: _250  and  _253
REMARK  100  A    between atoms: _253  and  _254
REMARK  101  A    between atoms: _259  and  _261
REMARK  102  A    between atoms: _261  and  _262
REMARK  103  A    between atoms: _261  and  _264
REMARK  104  A    between atoms: _264  and  _265
REMARK  105  A    between atoms: _265  and  _266
REMARK  106  A    between atoms: _266  and  _267
REMARK  107  A    between atoms: _276  and  _278
REMARK  108  A    between atoms: _278  and  _279
REMARK  109  A    between atoms: _278  and  _281
REMARK  110  A    between atoms: _281  and  _282
REMARK  111  A    between atoms: _285  and  _287
REMARK  112  A    between atoms: _287  and  _288
REMARK  113  A    between atoms: _287  and  _290
REMARK  114  A    between atoms: _294  and  _295
REMARK  115  A    between atoms: _300  and  _302
REMARK  116  A    between atoms: _302  and  _303
REMARK  117  A    between atoms: _302  and  _305
REMARK  118  A    between atoms: _305  and  _306
REMARK  119  A    between atoms: _306  and  _307
REMARK  120  A    between atoms: _307  and  _308
REMARK  121  A    between atoms: _308  and  _309
REMARK  122  A    between atoms: _313  and  _315
REMARK  123  A    between atoms: _315  and  _316
REMARK  124  A    between atoms: _315  and  _318
REMARK  125  A    between atoms: _318  and  _319
REMARK  126  A    between atoms: _325  and  _327
REMARK  127  A    between atoms: _327  and  _328
REMARK  128  A    between atoms: _327  and  _330
REMARK  129  A    between atoms: _330  and  _331
REMARK  130  A    between atoms: _334  and  _336
REMARK  131  A    between atoms: _336  and  _337
REMARK  132  A    between atoms: _336  and  _339
REMARK  133  A    between atoms: _339  and  _340
REMARK  134  A    between atoms: _340  and  _341
REMARK  135  A    between atoms: _341  and  _342
REMARK  136  A    between atoms: _351  and  _353
REMARK  137  A    between atoms: _353  and  _354
REMARK  138  A    between atoms: _356  and  _358
REMARK  139  A    between atoms: _358  and  _359
REMARK  140  A    between atoms: _361  and  _363
REMARK  141  A    between atoms: _363  and  _364
REMARK  142  A    between atoms: _363  and  _366
REMARK  143  A    between atoms: _366  and  _367
REMARK  144  A    between atoms: _370  and  _372
REMARK  145  A    between atoms: _372  and  _373
REMARK  146  A    between atoms: _372  and  _375
REMARK  147  A    between atoms: _375  and  _376
REMARK  148  A    between atoms: _381  and  _382
REMARK  149  A    between atoms: _384  and  _386
REMARK  150  A    between atoms: _386  and  _387
REMARK  151  A    between atoms: _386  and  _389
REMARK  152  A    between atoms: _389  and  _390
REMARK  153  A    between atoms: _393  and  _395
REMARK  154  A    between atoms: _395  and  _396
REMARK  155  A    between atoms: _398  and  _400
REMARK  156  A    between atoms: _400  and  _401
REMARK  157  A    between atoms: _400  and  _403
REMARK  158  A    between atoms: _403  and  _404
REMARK  159  A    between atoms: _408  and  _409
REMARK  160  A    between atoms: _414  and  _416
REMARK  161  A    between atoms: _416  and  _417
REMARK  162  A    between atoms: _416  and  _419
REMARK  163  A    between atoms: _419  and  _420
REMARK                            x       y       z     vdW  Elec       q    Type
REMARK                         _______ _______ _______ _____ _____    ______ ____
ROOT
ATOM      1  CA  LYS A   3     -32.232  29.541  -4.546  0.00  0.00    +0.149 C 
ENDROOT
BRANCH   1   4
ATOM      2  C   PRO A   2     -30.913  27.901  -3.356  0.00  0.00    +0.241 C 
ATOM      3  O   PRO A   2     -31.927  27.389  -2.881  0.00  0.00    -0.273 OA
ATOM      4  N   LYS A   3     -30.956  28.939  -4.185  0.00  0.00    -0.297 N 
ATOM      5  H   LYS A   3     -30.073  29.324  -4.578  0.00  0.00    +0.150 HD
BRANCH   2   8
ATOM      6  C   VAL A   1     -28.997  26.483  -5.237  0.00  0.00    +0.241 C 
ATOM      7  N   PRO A   2     -28.620  27.159  -4.141  0.00  0.00    -0.272 N 
ATOM      8  CA  PRO A   2     -29.536  27.345  -3.010  0.00  0.00    +0.152 C 
ATOM      9  CB  PRO A   2     -28.751  28.267  -2.080  0.00  0.00    +0.031 C 
ATOM     10  CG  PRO A   2     -27.334  27.849  -2.328  0.00  0.00    +0.024 C 
ATOM     11  CD  PRO A   2     -27.296  27.731  -3.840  0.00  0.00    +0.094 C 
ATOM     12  O   VAL A   1     -30.126  26.013  -5.349  0.00  0.00    -0.273 OA
BRANCH   6  13
ATOM     13  CA  VAL A   1     -27.968  26.334  -6.360  0.00  0.00    +0.145 C 
BRANCH  13  14
ATOM     14  CB  VAL A   1     -28.581  26.838  -7.684  0.00  0.00    +0.025 C 
ATOM     15  CG2 VAL A   1     -28.942  28.314  -7.563  0.00  0.00    +0.002 C 
ATOM     16  CG1 VAL A   1     -27.596  26.618  -8.832  0.00  0.00    +0.002 C 
ENDBRANCH  13  14
BRANCH  13  17
ATOM     17  N   VAL A   1     -27.507  24.949  -6.490  0.00  0.00    -0.238 NA
ATOM     18  H   VAL A   1     -27.428  24.529  -7.438  0.00  0.00    +0.142 HD
ENDBRANCH  13  17
ENDBRANCH   6  13
ENDBRANCH   2   8
ENDBRANCH   1   4
BRANCH   1  19
ATOM     19  C   LYS A   3     -33.106  28.633  -5.409  0.00  0.00    +0.241 C 
ATOM     20  N   PHE A   4     -32.633  27.414  -5.672  0.00  0.00    -0.298 N 
ATOM     21  H   PHE A   4     -31.690  27.149  -5.323  0.00  0.00    +0.150 HD
ATOM     22  O   LYS A   3     -34.190  29.034  -5.830  0.00  0.00    -0.273 OA
BRANCH  20  23
ATOM     23  CA  PHE A   4     -33.410  26.440  -6.440  0.00  0.00    +0.141 C 
BRANCH  23  24
ATOM     24  C   PHE A   4     -33.764  25.227  -5.586  0.00  0.00    +0.227 C 
ATOM     25  O   PHE A   4     -34.843  24.658  -5.734  0.00  0.00    -0.286 OA
ENDBRANCH  23  24
BRANCH  23  26
ATOM     26  CB  PHE A   4     -32.646  25.913  -7.662  0.00  0.00    +0.054 C 
BRANCH  26  27
ATOM     27  CG  PHE A   4     -32.377  26.940  -8.717  0.00  0.00    -0.020 A 
ATOM     28  CD2 PHE A   4     -33.123  28.112  -8.790  0.00  0.00    -0.004 A 
ATOM     29  CE2 PHE A   4     -32.876  29.053  -9.783  0.00  0.00    -0.000 A 
ATOM     30  CZ  PHE A   4     -31.875  28.822 -10.715  0.00  0.00    -0.000 A 
ATOM     31  CE1 PHE A   4     -31.126  27.653 -10.652  0.00  0.00    -0.000 A 
ATOM     32  CD1 PHE A   4     -31.379  26.721  -9.657  0.00  0.00    -0.004 A 
ENDBRANCH  26  27
ENDBRANCH  23  26
ENDBRANCH  20  23
ENDBRANCH   1  19
BRANCH   1  33
ATOM     33  CB  LYS A   3     -32.021  30.898  -5.231  0.00  0.00    +0.029 C 
BRANCH  33  34
ATOM     34  CG  LYS A   3     -31.324  30.845  -6.575  0.00  0.00    +0.000 C 
BRANCH  34  35
ATOM     35  CD  LYS A   3     -31.391  32.204  -7.257  0.00  0.00    -0.024 C 
BRANCH  35  36
ATOM     36  CE  LYS A   3     -30.784  32.157  -8.651  0.00  0.00    -0.086 C 
BRANCH  36  37
ATOM     37  NZ  LYS A   3     -30.916  33.474  -9.339  0.00  0.00    +0.380 N 
ATOM     38  HZ1 LYS A   3     -30.423  34.204  -8.786  0.00  0.00    -0.089 HD
ATOM     39  HZ2 LYS A   3     -31.923  33.721  -9.422  0.00  0.00    -0.089 HD
ATOM     40  HZ3 LYS A   3     -30.493  33.412 -10.287  0.00  0.00    -0.089 HD
ENDBRANCH  36  37
ENDBRANCH  35  36
ENDBRANCH  34  35
ENDBRANCH  33  34
ENDBRANCH   1  33
TORSDOF 15
REMARK  Name = ../refined-set-2016/3k5x/3k5x_pocket.pdb
REMARK  163 active torsions:
REMARK  status: ('A' for Active; 'I' for Inactive)
REMARK    1  A    between atoms: _1  and  _3
REMARK    2  A    between atoms: _14  and  _17
REMARK    3  A    between atoms: _17  and  _18
REMARK    4  A    between atoms: _25  and  _26
REMARK    5  A    between atoms: _32  and  _34
REMARK    6  A    between atoms: _34  and  _35
REMARK    7  A    between atoms: _34  and  _37
REMARK    8  A    between atoms: _37  and  _38
REMARK    9  A    between atoms: _48  and  _50
REMARK   10  A    between atoms: _50  and  _51
REMARK   11  A    between atoms: _54  and  _56
REMARK   12  A    between atoms: _56  and  _57
REMARK   13  A    between atoms: _56  and  _59
REMARK   14  A    between atoms: _59  and  _60
REMARK   15  A    between atoms: _62  and  _64
REMARK   16  A    between atoms: _64  and  _65
REMARK   17  A    between atoms: _64  and  _67
REMARK   18  A    between atoms: _70  and  _72
REMARK   19  A    between atoms: _72  and  _73
REMARK   20  A    between atoms: _72  and  _75
REMARK   21  A    between atoms: _75  and  _76
REMARK   22  A    between atoms: _81  and  _82
REMARK   23  A    between atoms: _84  and  _86
REMARK   24  A    between atoms: _86  and  _87
REMARK   25  A    between atoms: _86  and  _89
REMARK   26  A    between atoms: _92  and  _94
REMARK   27  A    between atoms: _94  and  _95
REMARK   28  A    between atoms: _94  and  _97
REMARK   29  A    between atoms: _97  and  _98
REMARK   30  A    between atoms: _98  and  _99
REMARK   31  A    between atoms: _99  and  _100
REMARK   32  A    between atoms: _109  and  _111
REMARK   33  A    between atoms: _111  and  _112
REMARK   34  A    between atoms: _111  and  _114
REMARK   35  A    between atoms: _114  and  _115
REMARK   36  A    between atoms: _117  and  _119
REMARK   37  A    between atoms: _119  and  _120
REMARK   38  A    between atoms: _119  and  _122
REMARK   39  A    between atoms: _122  and  _123
REMARK   40  A    between atoms: _123  and  _124
REMARK   41  A    between atoms: _129  and  _131
REMARK   42  A    between atoms: _131  and  _132
REMARK   43  A    between atoms: _131  and  _134
REMARK   44  A    between atoms: _134  and  _135
REMARK   45  A    between atoms: _135  and  _136
REMARK   46  A    between atoms: _136  and  _137
REMARK   47  A    between atoms: _136  and  _138
REMARK   48  A    between atoms: _137  and  ZN_426
REMARK   49  A    between atoms: _138  and  ZN_427
REMARK   50  A    between atoms: _139  and  _141
REMARK   51  A    between atoms: _141  and  _142
REMARK   52  A    between atoms: _141  and  _144
REMARK   53  A    between atoms: _144  and  _145
REMARK   54  A    between atoms: _150  and  _151
REMARK   55  A    between atoms: _153  and  _155
REMARK   56  A    between atoms: _155  and  _156
REMARK   57  A    between atoms: _155  and  _158
REMARK   58  A    between atoms: _158  and  _159
REMARK   59  A    between atoms: _162  and  _164
REMARK   60  A    between atoms: _164  and  _165
REMARK   61  A    between atoms: _164  and  _167
REMARK   62  A    between atoms: _167  and  _168
REMARK   63  A    between atoms: _171  and  _173
REMARK   64  A    between atoms: _173  and  _174
REMARK   65  A    between atoms: _173  and  _176
REMARK   66  A    between atoms: _176  and  _177
REMARK   67  A    between atoms: _182  and  _184
REMARK   68  A    between atoms: _184  and  _185
REMARK   69  A    between atoms: _184  and  _187
REMARK   70  A    between atoms: _187  and  _188
REMARK   71  A    between atoms: _193  and  _195
REMARK   72  A    between atoms: _195  and  _196
REMARK   73  A    between atoms: _195  and  _198
REMARK   74  A    between atoms: _198  and  _199
REMARK   75  A    between atoms: _202  and  _204
REMARK   76  A    between atoms: _204  and  _205
REMARK   77  A    between atoms: _204  and  _207
REMARK   78  A    between atoms: _207  and  _208
REMARK   79  A    between atoms: _210  and  _212
REMARK   80  A    between atoms: _212  and  _213
REMARK   81  A    between atoms: _212  and  _215
REMARK   82  A    between atoms: _215  and  _216
REMARK   83  A    between atoms: _220  and  ZN_427
REMARK   84  A    between atoms: _221  and  _223
REMARK   85  A    between atoms: _223  and  _224
REMARK   86  A    between atoms: _223  and  _226
REMARK   87  A    between atoms: _226  and  _227
REMARK   88  A    between atoms: _229  and  _231
REMARK   89  A    between atoms: _231  and  _232
REMARK   90  A    between atoms: _231  and  _234
REMARK   91  A    between atoms: _234  and  _235
REMARK   92  A    between atoms: _239  and  ZN_427
REMARK   93  A    between atoms: _240  and  _242
REMARK   94  A    between atoms: _242  and  _243
REMARK   95  A    between atoms: _242  and  _245
REMARK   96  A    between atoms: _245  and  _246
REMARK   97  A    between atoms: _248  and  _250
REMARK   98  A    between atoms: _250  and  _251
REMARK   99  A    between atoms: _250  and  _253
REMARK  100  A    between atoms: _253  and  _254
REMARK  101  A    between atoms: _259  and  _261
REMARK  102  A    between atoms: _261  and  _262
REMARK  103  A    between atoms: _261  and  _264
REMARK  104  A    between atoms: _264  and  _265
REMARK  105  A    between atoms: _265  and  _266
REMARK  106  A    between atoms: _266  and  _267
REMARK  107  A    between atoms: _276  and  _278
REMARK  108  A    between atoms: _278  and  _279
REMARK  109  A    between atoms: _278  and  _281
REMARK  110  A    between atoms: _281  and  _282
REMARK  111  A    between atoms: _285  and  _287
REMARK  112  A    between atoms: _287  and  _288
REMARK  113  A    between atoms: _287  and  _290
REMARK  114  A    between atoms: _294  and  _295
REMARK  115  A    between atoms: _300  and  _302
REMARK  116  A    between atoms: _302  and  _303
REMARK  117  A    between atoms: _302  and  _305
REMARK  118  A    between atoms: _305  and  _306
REMARK  119  A    between atoms: _306  and  _307
REMARK  120  A    between atoms: _307  and  _308
REMARK  121  A    between atoms: _308  and  _309
REMARK  122  A    between atoms: _313  and  _315
REMARK  123  A    between atoms: _315  and  _316
REMARK  124  A    between atoms: _315  and  _318
REMARK  125  A    between atoms: _318  and  _319
REMARK  126  A    between atoms: _325  and  _327
REMARK  127  A    between atoms: _327  and  _328
REMARK  128  A    between atoms: _327  and  _330
REMARK  129  A    between atoms: _330  and  _331
REMARK  130  A    between atoms: _334  and  _336
REMARK  131  A    between atoms: _336  and  _337
REMARK  132  A    between atoms: _336  and  _339
REMARK  133  A    between atoms: _339  and  _340
REMARK  134  A    between atoms: _340  and  _341
REMARK  135  A    between atoms: _341  and  _342
REMARK  136  A    between atoms: _351  and  _353
REMARK  137  A    between atoms: _353  and  _354
REMARK  138  A    between atoms: _356  and  _358
REMARK  139  A    between atoms: _358  and  _359
REMARK  140  A    between atoms: _361  and  _363
REMARK  141  A    between atoms: _363  and  _364
REMARK  142  A    between atoms: _363  and  _366
REMARK  143  A    between atoms: _366  and  _367
REMARK  144  A    between atoms: _370  and  _372
REMARK  145  A    between atoms: _372  and  _373
REMARK  146  A    between atoms: _372  and  _375
REMARK  147  A    between atoms: _375  and  _376
REMARK  148  A    between atoms: _381  and  _382
REMARK  149  A    between atoms: _384  and  _386
REMARK  150  A    between atoms: _386  and  _387
REMARK  151  A    between atoms: _386  and  _389
REMARK  152  A    between atoms: _389  and  _390
REMARK  153  A    between atoms: _393  and  _395
REMARK  154  A    between atoms: _395  and  _396
REMARK  155  A    between atoms: _398  and  _400
REMARK  156  A    between atoms: _400  and  _401
REMARK  157  A    between atoms: _400  and  _403
REMARK  158  A    between atoms: _403  and  _404
REMARK  159  A    between atoms: _408  and  _409
REMARK  160  A    between atoms: _414  and  _416
REMARK  161  A    between atoms: _416  and  _417
REMARK  162  A    between atoms: _416  and  _419
REMARK  163  A    between atoms: _419  and  _420
REMARK                            x       y       z     vdW  Elec       q    Type
REMARK                         _______ _______ _______ _____ _____    ______ ____
ROOT
ATOM      1  CA  LEU A   1     -31.905  42.184 -12.193  0.00  0.00    +0.133 C 
ENDROOT
BRANCH   1   2
ATOM      2  N   LEU A   1     -33.272  42.481 -11.778  0.00  0.00    -0.239 NA
ATOM      3  H   LEU A   1     -33.939  42.885 -12.466  0.00  0.00    +0.142 HD
ENDBRANCH   1   2
BRANCH   1   4
ATOM      4  C   LEU A   1     -31.023  43.430 -12.264  0.00  0.00    +0.224 C 
ATOM      5  O   LEU A   1     -29.851  43.347 -12.632  0.00  0.00    -0.287 OA
ENDBRANCH   1   4
BRANCH   1   6
ATOM      6  CB  LEU A   1     -31.908  41.473 -13.549  0.00  0.00    +0.025 C 
BRANCH   6   7
ATOM      7  CG  LEU A   1     -32.618  40.117 -13.596  0.00  0.00    +0.002 C 
ATOM      8  CD2 LEU A   1     -31.985  39.166 -12.590  0.00  0.00    +0.000 C 
ATOM      9  CD1 LEU A   1     -32.528  39.542 -15.001  0.00  0.00    +0.000 C 
ENDBRANCH   6   7
ENDBRANCH   1   6
TORSDOF 4
REMARK  Name = ../refined-set-2016/3k5x/3k5x_pocket.pdb
REMARK  163 active torsions:
REMARK  status: ('A' for Active; 'I' for Inactive)
REMARK    1  A    between atoms: _1  and  _3
REMARK    2  A    between atoms: _14  and  _17
REMARK    3  A    between atoms: _17  and  _18
REMARK    4  A    between atoms: _25  and  _26
REMARK    5  A    between atoms: _32  and  _34
REMARK    6  A    between atoms: _34  and  _35
REMARK    7  A    between atoms: _34  and  _37
REMARK    8  A    between atoms: _37  and  _38
REMARK    9  A    between atoms: _48  and  _50
REMARK   10  A    between atoms: _50  and  _51
REMARK   11  A    between atoms: _54  and  _56
REMARK   12  A    between atoms: _56  and  _57
REMARK   13  A    between atoms: _56  and  _59
REMARK   14  A    between atoms: _59  and  _60
REMARK   15  A    between atoms: _62  and  _64
REMARK   16  A    between atoms: _64  and  _65
REMARK   17  A    between atoms: _64  and  _67
REMARK   18  A    between atoms: _70  and  _72
REMARK   19  A    between atoms: _72  and  _73
REMARK   20  A    between atoms: _72  and  _75
REMARK   21  A    between atoms: _75  and  _76
REMARK   22  A    between atoms: _81  and  _82
REMARK   23  A    between atoms: _84  and  _86
REMARK   24  A    between atoms: _86  and  _87
REMARK   25  A    between atoms: _86  and  _89
REMARK   26  A    between atoms: _92  and  _94
REMARK   27  A    between atoms: _94  and  _95
REMARK   28  A    between atoms: _94  and  _97
REMARK   29  A    between atoms: _97  and  _98
REMARK   30  A    between atoms: _98  and  _99
REMARK   31  A    between atoms: _99  and  _100
REMARK   32  A    between atoms: _109  and  _111
REMARK   33  A    between atoms: _111  and  _112
REMARK   34  A    between atoms: _111  and  _114
REMARK   35  A    between atoms: _114  and  _115
REMARK   36  A    between atoms: _117  and  _119
REMARK   37  A    between atoms: _119  and  _120
REMARK   38  A    between atoms: _119  and  _122
REMARK   39  A    between atoms: _122  and  _123
REMARK   40  A    between atoms: _123  and  _124
REMARK   41  A    between atoms: _129  and  _131
REMARK   42  A    between atoms: _131  and  _132
REMARK   43  A    between atoms: _131  and  _134
REMARK   44  A    between atoms: _134  and  _135
REMARK   45  A    between atoms: _135  and  _136
REMARK   46  A    between atoms: _136  and  _137
REMARK   47  A    between atoms: _136  and  _138
REMARK   48  A    between atoms: _137  and  ZN_426
REMARK   49  A    between atoms: _138  and  ZN_427
REMARK   50  A    between atoms: _139  and  _141
REMARK   51  A    between atoms: _141  and  _142
REMARK   52  A    between atoms: _141  and  _144
REMARK   53  A    between atoms: _144  and  _145
REMARK   54  A    between atoms: _150  and  _151
REMARK   55  A    between atoms: _153  and  _155
REMARK   56  A    between atoms: _155  and  _156
REMARK   57  A    between atoms: _155  and  _158
REMARK   58  A    between atoms: _158  and  _159
REMARK   59  A    between atoms: _162  and  _164
REMARK   60  A    between atoms: _164  and  _165
REMARK   61  A    between atoms: _164  and  _167
REMARK   62  A    between atoms: _167  and  _168
REMARK   63  A    between atoms: _171  and  _173
REMARK   64  A    between atoms: _173  and  _174
REMARK   65  A    between atoms: _173  and  _176
REMARK   66  A    between atoms: _176  and  _177
REMARK   67  A    between atoms: _182  and  _184
REMARK   68  A    between atoms: _184  and  _185
REMARK   69  A    between atoms: _184  and  _187
REMARK   70  A    between atoms: _187  and  _188
REMARK   71  A    between atoms: _193  and  _195
REMARK   72  A    between atoms: _195  and  _196
REMARK   73  A    between atoms: _195  and  _198
REMARK   74  A    between atoms: _198  and  _199
REMARK   75  A    between atoms: _202  and  _204
REMARK   76  A    between atoms: _204  and  _205
REMARK   77  A    between atoms: _204  and  _207
REMARK   78  A    between atoms: _207  and  _208
REMARK   79  A    between atoms: _210  and  _212
REMARK   80  A    between atoms: _212  and  _213
REMARK   81  A    between atoms: _212  and  _215
REMARK   82  A    between atoms: _215  and  _216
REMARK   83  A    between atoms: _220  and  ZN_427
REMARK   84  A    between atoms: _221  and  _223
REMARK   85  A    between atoms: _223  and  _224
REMARK   86  A    between atoms: _223  and  _226
REMARK   87  A    between atoms: _226  and  _227
REMARK   88  A    between atoms: _229  and  _231
REMARK   89  A    between atoms: _231  and  _232
REMARK   90  A    between atoms: _231  and  _234
REMARK   91  A    between atoms: _234  and  _235
REMARK   92  A    between atoms: _239  and  ZN_427
REMARK   93  A    between atoms: _240  and  _242
REMARK   94  A    between atoms: _242  and  _243
REMARK   95  A    between atoms: _242  and  _245
REMARK   96  A    between atoms: _245  and  _246
REMARK   97  A    between atoms: _248  and  _250
REMARK   98  A    between atoms: _250  and  _251
REMARK   99  A    between atoms: _250  and  _253
REMARK  100  A    between atoms: _253  and  _254
REMARK  101  A    between atoms: _259  and  _261
REMARK  102  A    between atoms: _261  and  _262
REMARK  103  A    between atoms: _261  and  _264
REMARK  104  A    between atoms: _264  and  _265
REMARK  105  A    between atoms: _265  and  _266
REMARK  106  A    between atoms: _266  and  _267
REMARK  107  A    between atoms: _276  and  _278
REMARK  108  A    between atoms: _278  and  _279
REMARK  109  A    between atoms: _278  and  _281
REMARK  110  A    between atoms: _281  and  _282
REMARK  111  A    between atoms: _285  and  _287
REMARK  112  A    between atoms: _287  and  _288
REMARK  113  A    between atoms: _287  and  _290
REMARK  114  A    between atoms: _294  and  _295
REMARK  115  A    between atoms: _300  and  _302
REMARK  116  A    between atoms: _302  and  _303
REMARK  117  A    between atoms: _302  and  _305
REMARK  118  A    between atoms: _305  and  _306
REMARK  119  A    between atoms: _306  and  _307
REMARK  120  A    between atoms: _307  and  _308
REMARK  121  A    between atoms: _308  and  _309
REMARK  122  A    between atoms: _313  and  _315
REMARK  123  A    between atoms: _315  and  _316
REMARK  124  A    between atoms: _315  and  _318
REMARK  125  A    between atoms: _318  and  _319
REMARK  126  A    between atoms: _325  and  _327
REMARK  127  A    between atoms: _327  and  _328
REMARK  128  A    between atoms: _327  and  _330
REMARK  129  A    between atoms: _330  and  _331
REMARK  130  A    between atoms: _334  and  _336
REMARK  131  A    between atoms: _336  and  _337
REMARK  132  A    between atoms: _336  and  _339
REMARK  133  A    between atoms: _339  and  _340
REMARK  134  A    between atoms: _340  and  _341
REMARK  135  A    between atoms: _341  and  _342
REMARK  136  A    between atoms: _351  and  _353
REMARK  137  A    between atoms: _353  and  _354
REMARK  138  A    between atoms: _356  and  _358
REMARK  139  A    between atoms: _358  and  _359
REMARK  140  A    between atoms: _361  and  _363
REMARK  141  A    between atoms: _363  and  _364
REMARK  142  A    between atoms: _363  and  _366
REMARK  143  A    between atoms: _366  and  _367
REMARK  144  A    between atoms: _370  and  _372
REMARK  145  A    between atoms: _372  and  _373
REMARK  146  A    between atoms: _372  and  _375
REMARK  147  A    between atoms: _375  and  _376
REMARK  148  A    between atoms: _381  and  _382
REMARK  149  A    between atoms: _384  and  _386
REMARK  150  A    between atoms: _386  and  _387
REMARK  151  A    between atoms: _386  and  _389
REMARK  152  A    between atoms: _389  and  _390
REMARK  153  A    between atoms: _393  and  _395
REMARK  154  A    between atoms: _395  and  _396
REMARK  155  A    between atoms: _398  and  _400
REMARK  156  A    between atoms: _400  and  _401
REMARK  157  A    between atoms: _400  and  _403
REMARK  158  A    between atoms: _403  and  _404
REMARK  159  A    between atoms: _408  and  _409
REMARK  160  A    between atoms: _414  and  _416
REMARK  161  A    between atoms: _416  and  _417
REMARK  162  A    between atoms: _416  and  _419
REMARK  163  A    between atoms: _419  and  _420
REMARK                            x       y       z     vdW  Elec       q    Type
REMARK                         _______ _______ _______ _____ _____    ______ ____
ROOT
ATOM      1  NE  ARG A   1     -27.732  35.614  -0.404  0.00  0.00    -0.265 N 
ATOM      2  HE  ARG A   1     -27.178  36.405  -0.018  0.00  0.00    +0.259 HD
ATOM      3  CZ  ARG A   1     -28.368  35.807  -1.556  0.00  0.00    +0.342 C 
ATOM      4  NH2 ARG A   1     -29.085  34.831  -2.100  0.00  0.00    -0.292 N 
ATOM      5 HH21 ARG A   1     -29.152  33.908  -1.625  0.00  0.00    +0.255 HD
ATOM      6 HH22 ARG A   1     -29.580  34.989  -3.001  0.00  0.00    +0.255 HD
ATOM      7  NH1 ARG A   1     -28.289  36.984  -2.166  0.00  0.00    -0.292 N 
ATOM      8 HH11 ARG A   1     -27.731  37.753  -1.743  0.00  0.00    +0.255 HD
ATOM      9 HH12 ARG A   1     -28.786  37.137  -3.067  0.00  0.00    +0.255 HD
ENDROOT
BRANCH   1  10
ATOM     10  CD  ARG A   1     -27.758  34.366   0.356  0.00  0.00    +0.174 C 
BRANCH  10  11
ATOM     11  CG  ARG A   1     -29.025  34.214   1.196  0.00  0.00    +0.045 C 
BRANCH  11  12
ATOM     12  CB  ARG A   1     -29.072  35.247   2.317  0.00  0.00    +0.029 C 
BRANCH  12  13
ATOM     13  CA  ARG A   1     -30.244  35.083   3.295  0.00  0.00    +0.133 C 
BRANCH  13  14
ATOM     14  N   ARG A   1     -30.163  36.096   4.341  0.00  0.00    -0.239 NA
ATOM     15  H   ARG A   1     -29.308  36.684   4.408  0.00  0.00    +0.142 HD
ENDBRANCH  13  14
BRANCH  13  16
ATOM     16  C   ARG A   1     -30.200  33.689   3.922  0.00  0.00    +0.224 C 
ATOM     17  O   ARG A   1     -29.285  33.375   4.688  0.00  0.00    -0.287 OA
ENDBRANCH  13  16
ENDBRANCH  12  13
ENDBRANCH  11  12
ENDBRANCH  10  11
ENDBRANCH   1  10
TORSDOF 6
REMARK  Name = ../refined-set-2016/3k5x/3k5x_pocket.pdb
REMARK  163 active torsions:
REMARK  status: ('A' for Active; 'I' for Inactive)
REMARK    1  A    between atoms: _1  and  _3
REMARK    2  A    between atoms: _14  and  _17
REMARK    3  A    between atoms: _17  and  _18
REMARK    4  A    between atoms: _25  and  _26
REMARK    5  A    between atoms: _32  and  _34
REMARK    6  A    between atoms: _34  and  _35
REMARK    7  A    between atoms: _34  and  _37
REMARK    8  A    between atoms: _37  and  _38
REMARK    9  A    between atoms: _48  and  _50
REMARK   10  A    between atoms: _50  and  _51
REMARK   11  A    between atoms: _54  and  _56
REMARK   12  A    between atoms: _56  and  _57
REMARK   13  A    between atoms: _56  and  _59
REMARK   14  A    between atoms: _59  and  _60
REMARK   15  A    between atoms: _62  and  _64
REMARK   16  A    between atoms: _64  and  _65
REMARK   17  A    between atoms: _64  and  _67
REMARK   18  A    between atoms: _70  and  _72
REMARK   19  A    between atoms: _72  and  _73
REMARK   20  A    between atoms: _72  and  _75
REMARK   21  A    between atoms: _75  and  _76
REMARK   22  A    between atoms: _81  and  _82
REMARK   23  A    between atoms: _84  and  _86
REMARK   24  A    between atoms: _86  and  _87
REMARK   25  A    between atoms: _86  and  _89
REMARK   26  A    between atoms: _92  and  _94
REMARK   27  A    between atoms: _94  and  _95
REMARK   28  A    between atoms: _94  and  _97
REMARK   29  A    between atoms: _97  and  _98
REMARK   30  A    between atoms: _98  and  _99
REMARK   31  A    between atoms: _99  and  _100
REMARK   32  A    between atoms: _109  and  _111
REMARK   33  A    between atoms: _111  and  _112
REMARK   34  A    between atoms: _111  and  _114
REMARK   35  A    between atoms: _114  and  _115
REMARK   36  A    between atoms: _117  and  _119
REMARK   37  A    between atoms: _119  and  _120
REMARK   38  A    between atoms: _119  and  _122
REMARK   39  A    between atoms: _122  and  _123
REMARK   40  A    between atoms: _123  and  _124
REMARK   41  A    between atoms: _129  and  _131
REMARK   42  A    between atoms: _131  and  _132
REMARK   43  A    between atoms: _131  and  _134
REMARK   44  A    between atoms: _134  and  _135
REMARK   45  A    between atoms: _135  and  _136
REMARK   46  A    between atoms: _136  and  _137
REMARK   47  A    between atoms: _136  and  _138
REMARK   48  A    between atoms: _137  and  ZN_426
REMARK   49  A    between atoms: _138  and  ZN_427
REMARK   50  A    between atoms: _139  and  _141
REMARK   51  A    between atoms: _141  and  _142
REMARK   52  A    between atoms: _141  and  _144
REMARK   53  A    between atoms: _144  and  _145
REMARK   54  A    between atoms: _150  and  _151
REMARK   55  A    between atoms: _153  and  _155
REMARK   56  A    between atoms: _155  and  _156
REMARK   57  A    between atoms: _155  and  _158
REMARK   58  A    between atoms: _158  and  _159
REMARK   59  A    between atoms: _162  and  _164
REMARK   60  A    between atoms: _164  and  _165
REMARK   61  A    between atoms: _164  and  _167
REMARK   62  A    between atoms: _167  and  _168
REMARK   63  A    between atoms: _171  and  _173
REMARK   64  A    between atoms: _173  and  _174
REMARK   65  A    between atoms: _173  and  _176
REMARK   66  A    between atoms: _176  and  _177
REMARK   67  A    between atoms: _182  and  _184
REMARK   68  A    between atoms: _184  and  _185
REMARK   69  A    between atoms: _184  and  _187
REMARK   70  A    between atoms: _187  and  _188
REMARK   71  A    between atoms: _193  and  _195
REMARK   72  A    between atoms: _195  and  _196
REMARK   73  A    between atoms: _195  and  _198
REMARK   74  A    between atoms: _198  and  _199
REMARK   75  A    between atoms: _202  and  _204
REMARK   76  A    between atoms: _204  and  _205
REMARK   77  A    between atoms: _204  and  _207
REMARK   78  A    between atoms: _207  and  _208
REMARK   79  A    between atoms: _210  and  _212
REMARK   80  A    between atoms: _212  and  _213
REMARK   81  A    between atoms: _212  and  _215
REMARK   82  A    between atoms: _215  and  _216
REMARK   83  A    between atoms: _220  and  ZN_427
REMARK   84  A    between atoms: _221  and  _223
REMARK   85  A    between atoms: _223  and  _224
REMARK   86  A    between atoms: _223  and  _226
REMARK   87  A    between atoms: _226  and  _227
REMARK   88  A    between atoms: _229  and  _231
REMARK   89  A    between atoms: _231  and  _232
REMARK   90  A    between atoms: _231  and  _234
REMARK   91  A    between atoms: _234  and  _235
REMARK   92  A    between atoms: _239  and  ZN_427
REMARK   93  A    between atoms: _240  and  _242
REMARK   94  A    between atoms: _242  and  _243
REMARK   95  A    between atoms: _242  and  _245
REMARK   96  A    between atoms: _245  and  _246
REMARK   97  A    between atoms: _248  and  _250
REMARK   98  A    between atoms: _250  and  _251
REMARK   99  A    between atoms: _250  and  _253
REMARK  100  A    between atoms: _253  and  _254
REMARK  101  A    between atoms: _259  and  _261
REMARK  102  A    between atoms: _261  and  _262
REMARK  103  A    between atoms: _261  and  _264
REMARK  104  A    between atoms: _264  and  _265
REMARK  105  A    between atoms: _265  and  _266
REMARK  106  A    between atoms: _266  and  _267
REMARK  107  A    between atoms: _276  and  _278
REMARK  108  A    between atoms: _278  and  _279
REMARK  109  A    between atoms: _278  and  _281
REMARK  110  A    between atoms: _281  and  _282
REMARK  111  A    between atoms: _285  and  _287
REMARK  112  A    between atoms: _287  and  _288
REMARK  113  A    between atoms: _287  and  _290
REMARK  114  A    between atoms: _294  and  _295
REMARK  115  A    between atoms: _300  and  _302
REMARK  116  A    between atoms: _302  and  _303
REMARK  117  A    between atoms: _302  and  _305
REMARK  118  A    between atoms: _305  and  _306
REMARK  119  A    between atoms: _306  and  _307
REMARK  120  A    between atoms: _307  and  _308
REMARK  121  A    between atoms: _308  and  _309
REMARK  122  A    between atoms: _313  and  _315
REMARK  123  A    between atoms: _315  and  _316
REMARK  124  A    between atoms: _315  and  _318
REMARK  125  A    between atoms: _318  and  _319
REMARK  126  A    between atoms: _325  and  _327
REMARK  127  A    between atoms: _327  and  _328
REMARK  128  A    between atoms: _327  and  _330
REMARK  129  A    between atoms: _330  and  _331
REMARK  130  A    between atoms: _334  and  _336
REMARK  131  A    between atoms: _336  and  _337
REMARK  132  A    between atoms: _336  and  _339
REMARK  133  A    between atoms: _339  and  _340
REMARK  134  A    between atoms: _340  and  _341
REMARK  135  A    between atoms: _341  and  _342
REMARK  136  A    between atoms: _351  and  _353
REMARK  137  A    between atoms: _353  and  _354
REMARK  138  A    between atoms: _356  and  _358
REMARK  139  A    between atoms: _358  and  _359
REMARK  140  A    between atoms: _361  and  _363
REMARK  141  A    between atoms: _363  and  _364
REMARK  142  A    between atoms: _363  and  _366
REMARK  143  A    between atoms: _366  and  _367
REMARK  144  A    between atoms: _370  and  _372
REMARK  145  A    between atoms: _372  and  _373
REMARK  146  A    between atoms: _372  and  _375
REMARK  147  A    between atoms: _375  and  _376
REMARK  148  A    between atoms: _381  and  _382
REMARK  149  A    between atoms: _384  and  _386
REMARK  150  A    between atoms: _386  and  _387
REMARK  151  A    between atoms: _386  and  _389
REMARK  152  A    between atoms: _389  and  _390
REMARK  153  A    between atoms: _393  and  _395
REMARK  154  A    between atoms: _395  and  _396
REMARK  155  A    between atoms: _398  and  _400
REMARK  156  A    between atoms: _400  and  _401
REMARK  157  A    between atoms: _400  and  _403
REMARK  158  A    between atoms: _403  and  _404
REMARK  159  A    between atoms: _408  and  _409
REMARK  160  A    between atoms: _414  and  _416
REMARK  161  A    between atoms: _416  and  _417
REMARK  162  A    between atoms: _416  and  _419
REMARK  163  A    between atoms: _419  and  _420
REMARK                            x       y       z     vdW  Elec       q    Type
REMARK                         _______ _______ _______ _____ _____    ______ ____
ROOT
ATOM      1  CA  ASP A   5     -18.275  29.024 -10.430  0.00  0.00    +0.160 C 
ENDROOT
BRANCH   1   2
ATOM      2  C   ASP A   5     -19.267  29.649 -11.405  0.00  0.00    +0.241 C 
ATOM      3  N   GLY A   6     -20.519  29.209 -11.321  0.00  0.00    -0.295 N 
ATOM      4  H   GLY A   6     -20.757  28.465 -10.635  0.00  0.00    +0.150 HD
ATOM      5  O   ASP A   5     -18.916  30.530 -12.191  0.00  0.00    -0.273 OA
BRANCH   3   6
ATOM      6  CA  GLY A   6     -21.556  29.755 -12.176  0.00  0.00    +0.176 C 
BRANCH   6   7
ATOM      7  C   GLY A   6     -22.617  30.457 -11.347  0.00  0.00    +0.243 C 
ATOM      8  N   THR A   7     -22.551  30.255 -10.035  0.00  0.00    -0.295 N 
ATOM      9  H   THR A   7     -21.790  29.655  -9.659  0.00  0.00    +0.150 HD
ATOM     10  O   GLY A   6     -23.470  31.172 -11.876  0.00  0.00    -0.273 OA
BRANCH   8  11
ATOM     11  CA  THR A   7     -23.504  30.842  -9.105  0.00  0.00    +0.176 C 
BRANCH  11  12
ATOM     12  C   THR A   7     -22.711  31.339  -7.889  0.00  0.00    +0.246 C 
ATOM     13  N   PRO A   8     -23.148  32.445  -7.268  0.00  0.00    -0.272 N 
ATOM     14  CA  PRO A   8     -22.450  33.011  -6.108  0.00  0.00    +0.152 C 
ATOM     15  CB  PRO A   8     -23.003  34.432  -6.048  0.00  0.00    +0.031 C 
ATOM     16  CG  PRO A   8     -24.411  34.246  -6.497  0.00  0.00    +0.024 C 
ATOM     17  CD  PRO A   8     -24.270  33.309  -7.680  0.00  0.00    +0.094 C 
ATOM     18  O   THR A   7     -21.706  30.746  -7.510  0.00  0.00    -0.273 OA
BRANCH  14  19
ATOM     19  C   PRO A   8     -22.546  32.312  -4.756  0.00  0.00    +0.241 C 
ATOM     20  O   PRO A   8     -21.597  32.346  -3.969  0.00  0.00    -0.273 OA
ATOM     21  N   PHE A   9     -23.680  31.683  -4.482  0.00  0.00    -0.298 N 
ATOM     22  H   PHE A   9     -24.437  31.655  -5.194  0.00  0.00    +0.150 HD
BRANCH  21  23
ATOM     23  CA  PHE A   9     -23.878  31.031  -3.197  0.00  0.00    +0.141 C 
BRANCH  23  24
ATOM     24  C   PHE A   9     -23.926  29.517  -3.276  0.00  0.00    +0.227 C 
ATOM     25  O   PHE A   9     -24.330  28.946  -4.289  0.00  0.00    -0.286 OA
ENDBRANCH  23  24
BRANCH  23  26
ATOM     26  CB  PHE A   9     -25.146  31.588  -2.557  0.00  0.00    +0.054 C 
BRANCH  26  27
ATOM     27  CG  PHE A   9     -25.151  33.085  -2.479  0.00  0.00    -0.020 A 
ATOM     28  CD2 PHE A   9     -24.343  33.745  -1.560  0.00  0.00    -0.004 A 
ATOM     29  CE2 PHE A   9     -24.273  35.138  -1.543  0.00  0.00    -0.000 A 
ATOM     30  CZ  PHE A   9     -25.020  35.879  -2.452  0.00  0.00    -0.000 A 
ATOM     31  CE1 PHE A   9     -25.835  35.230  -3.371  0.00  0.00    -0.000 A 
ATOM     32  CD1 PHE A   9     -25.898  33.836  -3.379  0.00  0.00    -0.004 A 
ENDBRANCH  26  27
ENDBRANCH  23  26
ENDBRANCH  21  23
ENDBRANCH  14  19
ENDBRANCH  11  12
BRANCH  11  33
ATOM     33  CB  THR A   7     -24.575  29.786  -8.719  0.00  0.00    +0.137 C 
ATOM     34  CG2 THR A   7     -23.970  28.676  -7.870  0.00  0.00    +0.034 C 
BRANCH  33  35
ATOM     35  OG1 THR A   7     -25.647  30.417  -8.010  0.00  0.00    -0.382 OA
ATOM     36  HG1 THR A   7     -26.061  31.108  -8.586  0.00  0.00    +0.210 HD
ENDBRANCH  33  35
ENDBRANCH  11  33
ENDBRANCH   8  11
ENDBRANCH   6   7
ENDBRANCH   3   6
ENDBRANCH   1   2
BRANCH   1  38
ATOM     37  C   TYR A   4     -19.117  26.704 -10.325  0.00  0.00    +0.241 C 
ATOM     38  N   ASP A   5     -18.791  27.851  -9.735  0.00  0.00    -0.297 N 
ATOM     39  H   ASP A   5     -18.913  27.915  -8.704  0.00  0.00    +0.150 HD
ATOM     40  O   TYR A   4     -19.012  26.492 -11.538  0.00  0.00    -0.273 OA
BRANCH  37  41
ATOM     41  CA  TYR A   4     -19.671  25.646  -9.383  0.00  0.00    +0.153 C 
BRANCH  41  43
ATOM     42  C   ASP A   3     -21.840  25.521 -10.434  0.00  0.00    +0.241 C 
ATOM     43  N   TYR A   4     -20.740  24.898 -10.022  0.00  0.00    -0.297 N 
ATOM     44  H   TYR A   4     -20.644  23.871 -10.158  0.00  0.00    +0.150 HD
ATOM     45  O   ASP A   3     -22.007  26.736 -10.296  0.00  0.00    -0.273 OA
BRANCH  42  46
ATOM     46  CA  ASP A   3     -22.903  24.656 -11.107  0.00  0.00    +0.160 C 
BRANCH  46  49
ATOM     47  C   GLY A   2     -23.138  22.863  -9.446  0.00  0.00    +0.243 C 
ATOM     48  O   GLY A   2     -23.607  23.616  -8.590  0.00  0.00    -0.273 OA
ATOM     49  N   ASP A   3     -22.793  23.266 -10.664  0.00  0.00    -0.296 N 
ATOM     50  H   ASP A   3     -22.427  22.560 -11.334  0.00  0.00    +0.150 HD
BRANCH  47  51
ATOM     51  CA  GLY A   2     -22.922  21.398  -9.123  0.00  0.00    +0.176 C 
BRANCH  51  53
ATOM     52  C   GLY A   1     -24.146  20.224 -10.868  0.00  0.00    +0.240 C 
ATOM     53  N   GLY A   2     -23.038  20.372 -10.148  0.00  0.00    -0.295 N 
ATOM     54  H   GLY A   2     -22.233  19.737 -10.322  0.00  0.00    +0.150 HD
ATOM     55  O   GLY A   1     -25.117  20.971 -10.772  0.00  0.00    -0.274 OA
BRANCH  52  56
ATOM     56  CA  GLY A   1     -24.158  19.060 -11.844  0.00  0.00    +0.169 C 
BRANCH  56  57
ATOM     57  N   GLY A   1     -24.607  17.897 -11.090  0.00  0.00    -0.236 NA
ATOM     58  H   GLY A   1     -25.388  18.008 -10.412  0.00  0.00    +0.142 HD
ENDBRANCH  56  57
ENDBRANCH  52  56
ENDBRANCH  51  53
ENDBRANCH  47  51
ENDBRANCH  46  49
BRANCH  46  59
ATOM     59  CB  ASP A   3     -24.298  25.233 -10.823  0.00  0.00    +0.143 C 
BRANCH  59  60
ATOM     60  CG  ASP A   3     -24.570  26.497 -11.624  0.00  0.00    +0.367 C 
ATOM     61  OD2 ASP A   3     -25.164  27.454 -11.084  0.00  0.00    -0.246 OA
ATOM     62  OD1 ASP A   3     -24.191  26.522 -12.815  0.00  0.00    -0.246 OA
ENDBRANCH  59  60
ENDBRANCH  46  59
ENDBRANCH  42  46
ENDBRANCH  41  43
BRANCH  41  63
ATOM     63  CB  TYR A   4     -18.570  24.701  -8.897  0.00  0.00    +0.055 C 
BRANCH  63  64
ATOM     64  CG  TYR A   4     -18.963  23.983  -7.626  0.00  0.00    -0.020 A 
ATOM     65  CD2 TYR A   4     -19.169  24.695  -6.442  0.00  0.00    -0.001 A 
ATOM     66  CE2 TYR A   4     -19.579  24.055  -5.278  0.00  0.00    +0.036 A 
ATOM     67  CZ  TYR A   4     -19.788  22.685  -5.287  0.00  0.00    +0.134 A 
ATOM     68  CE1 TYR A   4     -19.586  21.952  -6.448  0.00  0.00    +0.036 A 
ATOM     69  CD1 TYR A   4     -19.174  22.604  -7.611  0.00  0.00    -0.001 A 
BRANCH  67  70
ATOM     70  OH  TYR A   4     -20.216  22.052  -4.141  0.00  0.00    -0.506 OA
ATOM     71  HH  TYR A   4     -19.555  21.363  -3.879  0.00  0.00    +0.292 HD
ENDBRANCH  67  70
ENDBRANCH  63  64
ENDBRANCH  41  63
ENDBRANCH  37  41
ENDBRANCH   1  38
BRANCH   1  72
ATOM     72  CB  ASP A   5     -16.938  28.712 -11.109  0.00  0.00    +0.143 C 
BRANCH  72  73
ATOM     73  CG  ASP A   5     -15.780  28.753 -10.124  0.00  0.00    +0.367 C 
ATOM     74  OD2 ASP A   5     -15.753  29.694  -9.298  0.00  0.00    -0.246 OA
ATOM     75  OD1 ASP A   5     -14.905  27.865 -10.168  0.00  0.00    -0.246 OA
ENDBRANCH  72  73
ENDBRANCH   1  72
TORSDOF 28
REMARK  Name = ../refined-set-2016/3k5x/3k5x_pocket.pdb
REMARK  163 active torsions:
REMARK  status: ('A' for Active; 'I' for Inactive)
REMARK    1  A    between atoms: _1  and  _3
REMARK    2  A    between atoms: _14  and  _17
REMARK    3  A    between atoms: _17  and  _18
REMARK    4  A    between atoms: _25  and  _26
REMARK    5  A    between atoms: _32  and  _34
REMARK    6  A    between atoms: _34  and  _35
REMARK    7  A    between atoms: _34  and  _37
REMARK    8  A    between atoms: _37  and  _38
REMARK    9  A    between atoms: _48  and  _50
REMARK   10  A    between atoms: _50  and  _51
REMARK   11  A    between atoms: _54  and  _56
REMARK   12  A    between atoms: _56  and  _57
REMARK   13  A    between atoms: _56  and  _59
REMARK   14  A    between atoms: _59  and  _60
REMARK   15  A    between atoms: _62  and  _64
REMARK   16  A    between atoms: _64  and  _65
REMARK   17  A    between atoms: _64  and  _67
REMARK   18  A    between atoms: _70  and  _72
REMARK   19  A    between atoms: _72  and  _73
REMARK   20  A    between atoms: _72  and  _75
REMARK   21  A    between atoms: _75  and  _76
REMARK   22  A    between atoms: _81  and  _82
REMARK   23  A    between atoms: _84  and  _86
REMARK   24  A    between atoms: _86  and  _87
REMARK   25  A    between atoms: _86  and  _89
REMARK   26  A    between atoms: _92  and  _94
REMARK   27  A    between atoms: _94  and  _95
REMARK   28  A    between atoms: _94  and  _97
REMARK   29  A    between atoms: _97  and  _98
REMARK   30  A    between atoms: _98  and  _99
REMARK   31  A    between atoms: _99  and  _100
REMARK   32  A    between atoms: _109  and  _111
REMARK   33  A    between atoms: _111  and  _112
REMARK   34  A    between atoms: _111  and  _114
REMARK   35  A    between atoms: _114  and  _115
REMARK   36  A    between atoms: _117  and  _119
REMARK   37  A    between atoms: _119  and  _120
REMARK   38  A    between atoms: _119  and  _122
REMARK   39  A    between atoms: _122  and  _123
REMARK   40  A    between atoms: _123  and  _124
REMARK   41  A    between atoms: _129  and  _131
REMARK   42  A    between atoms: _131  and  _132
REMARK   43  A    between atoms: _131  and  _134
REMARK   44  A    between atoms: _134  and  _135
REMARK   45  A    between atoms: _135  and  _136
REMARK   46  A    between atoms: _136  and  _137
REMARK   47  A    between atoms: _136  and  _138
REMARK   48  A    between atoms: _137  and  ZN_426
REMARK   49  A    between atoms: _138  and  ZN_427
REMARK   50  A    between atoms: _139  and  _141
REMARK   51  A    between atoms: _141  and  _142
REMARK   52  A    between atoms: _141  and  _144
REMARK   53  A    between atoms: _144  and  _145
REMARK   54  A    between atoms: _150  and  _151
REMARK   55  A    between atoms: _153  and  _155
REMARK   56  A    between atoms: _155  and  _156
REMARK   57  A    between atoms: _155  and  _158
REMARK   58  A    between atoms: _158  and  _159
REMARK   59  A    between atoms: _162  and  _164
REMARK   60  A    between atoms: _164  and  _165
REMARK   61  A    between atoms: _164  and  _167
REMARK   62  A    between atoms: _167  and  _168
REMARK   63  A    between atoms: _171  and  _173
REMARK   64  A    between atoms: _173  and  _174
REMARK   65  A    between atoms: _173  and  _176
REMARK   66  A    between atoms: _176  and  _177
REMARK   67  A    between atoms: _182  and  _184
REMARK   68  A    between atoms: _184  and  _185
REMARK   69  A    between atoms: _184  and  _187
REMARK   70  A    between atoms: _187  and  _188
REMARK   71  A    between atoms: _193  and  _195
REMARK   72  A    between atoms: _195  and  _196
REMARK   73  A    between atoms: _195  and  _198
REMARK   74  A    between atoms: _198  and  _199
REMARK   75  A    between atoms: _202  and  _204
REMARK   76  A    between atoms: _204  and  _205
REMARK   77  A    between atoms: _204  and  _207
REMARK   78  A    between atoms: _207  and  _208
REMARK   79  A    between atoms: _210  and  _212
REMARK   80  A    between atoms: _212  and  _213
REMARK   81  A    between atoms: _212  and  _215
REMARK   82  A    between atoms: _215  and  _216
REMARK   83  A    between atoms: _220  and  ZN_427
REMARK   84  A    between atoms: _221  and  _223
REMARK   85  A    between atoms: _223  and  _224
REMARK   86  A    between atoms: _223  and  _226
REMARK   87  A    between atoms: _226  and  _227
REMARK   88  A    between atoms: _229  and  _231
REMARK   89  A    between atoms: _231  and  _232
REMARK   90  A    between atoms: _231  and  _234
REMARK   91  A    between atoms: _234  and  _235
REMARK   92  A    between atoms: _239  and  ZN_427
REMARK   93  A    between atoms: _240  and  _242
REMARK   94  A    between atoms: _242  and  _243
REMARK   95  A    between atoms: _242  and  _245
REMARK   96  A    between atoms: _245  and  _246
REMARK   97  A    between atoms: _248  and  _250
REMARK   98  A    between atoms: _250  and  _251
REMARK   99  A    between atoms: _250  and  _253
REMARK  100  A    between atoms: _253  and  _254
REMARK  101  A    between atoms: _259  and  _261
REMARK  102  A    between atoms: _261  and  _262
REMARK  103  A    between atoms: _261  and  _264
REMARK  104  A    between atoms: _264  and  _265
REMARK  105  A    between atoms: _265  and  _266
REMARK  106  A    between atoms: _266  and  _267
REMARK  107  A    between atoms: _276  and  _278
REMARK  108  A    between atoms: _278  and  _279
REMARK  109  A    between atoms: _278  and  _281
REMARK  110  A    between atoms: _281  and  _282
REMARK  111  A    between atoms: _285  and  _287
REMARK  112  A    between atoms: _287  and  _288
REMARK  113  A    between atoms: _287  and  _290
REMARK  114  A    between atoms: _294  and  _295
REMARK  115  A    between atoms: _300  and  _302
REMARK  116  A    between atoms: _302  and  _303
REMARK  117  A    between atoms: _302  and  _305
REMARK  118  A    between atoms: _305  and  _306
REMARK  119  A    between atoms: _306  and  _307
REMARK  120  A    between atoms: _307  and  _308
REMARK  121  A    between atoms: _308  and  _309
REMARK  122  A    between atoms: _313  and  _315
REMARK  123  A    between atoms: _315  and  _316
REMARK  124  A    between atoms: _315  and  _318
REMARK  125  A    between atoms: _318  and  _319
REMARK  126  A    between atoms: _325  and  _327
REMARK  127  A    between atoms: _327  and  _328
REMARK  128  A    between atoms: _327  and  _330
REMARK  129  A    between atoms: _330  and  _331
REMARK  130  A    between atoms: _334  and  _336
REMARK  131  A    between atoms: _336  and  _337
REMARK  132  A    between atoms: _336  and  _339
REMARK  133  A    between atoms: _339  and  _340
REMARK  134  A    between atoms: _340  and  _341
REMARK  135  A    between atoms: _341  and  _342
REMARK  136  A    between atoms: _351  and  _353
REMARK  137  A    between atoms: _353  and  _354
REMARK  138  A    between atoms: _356  and  _358
REMARK  139  A    between atoms: _358  and  _359
REMARK  140  A    between atoms: _361  and  _363
REMARK  141  A    between atoms: _363  and  _364
REMARK  142  A    between atoms: _363  and  _366
REMARK  143  A    between atoms: _366  and  _367
REMARK  144  A    between atoms: _370  and  _372
REMARK  145  A    between atoms: _372  and  _373
REMARK  146  A    between atoms: _372  and  _375
REMARK  147  A    between atoms: _375  and  _376
REMARK  148  A    between atoms: _381  and  _382
REMARK  149  A    between atoms: _384  and  _386
REMARK  150  A    between atoms: _386  and  _387
REMARK  151  A    between atoms: _386  and  _389
REMARK  152  A    between atoms: _389  and  _390
REMARK  153  A    between atoms: _393  and  _395
REMARK  154  A    between atoms: _395  and  _396
REMARK  155  A    between atoms: _398  and  _400
REMARK  156  A    between atoms: _400  and  _401
REMARK  157  A    between atoms: _400  and  _403
REMARK  158  A    between atoms: _403  and  _404
REMARK  159  A    between atoms: _408  and  _409
REMARK  160  A    between atoms: _414  and  _416
REMARK  161  A    between atoms: _416  and  _417
REMARK  162  A    between atoms: _416  and  _419
REMARK  163  A    between atoms: _419  and  _420
REMARK                            x       y       z     vdW  Elec       q    Type
REMARK                         _______ _______ _______ _____ _____    ______ ____
ROOT
ATOM      1  O   HOH     1     -33.878  29.278 -17.324  0.00  0.00    +0.000 OA
ENDROOT
TORSDOF 0
REMARK  Name = ../refined-set-2016/3k5x/3k5x_pocket.pdb
REMARK  163 active torsions:
REMARK  status: ('A' for Active; 'I' for Inactive)
REMARK    1  A    between atoms: _1  and  _3
REMARK    2  A    between atoms: _14  and  _17
REMARK    3  A    between atoms: _17  and  _18
REMARK    4  A    between atoms: _25  and  _26
REMARK    5  A    between atoms: _32  and  _34
REMARK    6  A    between atoms: _34  and  _35
REMARK    7  A    between atoms: _34  and  _37
REMARK    8  A    between atoms: _37  and  _38
REMARK    9  A    between atoms: _48  and  _50
REMARK   10  A    between atoms: _50  and  _51
REMARK   11  A    between atoms: _54  and  _56
REMARK   12  A    between atoms: _56  and  _57
REMARK   13  A    between atoms: _56  and  _59
REMARK   14  A    between atoms: _59  and  _60
REMARK   15  A    between atoms: _62  and  _64
REMARK   16  A    between atoms: _64  and  _65
REMARK   17  A    between atoms: _64  and  _67
REMARK   18  A    between atoms: _70  and  _72
REMARK   19  A    between atoms: _72  and  _73
REMARK   20  A    between atoms: _72  and  _75
REMARK   21  A    between atoms: _75  and  _76
REMARK   22  A    between atoms: _81  and  _82
REMARK   23  A    between atoms: _84  and  _86
REMARK   24  A    between atoms: _86  and  _87
REMARK   25  A    between atoms: _86  and  _89
REMARK   26  A    between atoms: _92  and  _94
REMARK   27  A    between atoms: _94  and  _95
REMARK   28  A    between atoms: _94  and  _97
REMARK   29  A    between atoms: _97  and  _98
REMARK   30  A    between atoms: _98  and  _99
REMARK   31  A    between atoms: _99  and  _100
REMARK   32  A    between atoms: _109  and  _111
REMARK   33  A    between atoms: _111  and  _112
REMARK   34  A    between atoms: _111  and  _114
REMARK   35  A    between atoms: _114  and  _115
REMARK   36  A    between atoms: _117  and  _119
REMARK   37  A    between atoms: _119  and  _120
REMARK   38  A    between atoms: _119  and  _122
REMARK   39  A    between atoms: _122  and  _123
REMARK   40  A    between atoms: _123  and  _124
REMARK   41  A    between atoms: _129  and  _131
REMARK   42  A    between atoms: _131  and  _132
REMARK   43  A    between atoms: _131  and  _134
REMARK   44  A    between atoms: _134  and  _135
REMARK   45  A    between atoms: _135  and  _136
REMARK   46  A    between atoms: _136  and  _137
REMARK   47  A    between atoms: _136  and  _138
REMARK   48  A    between atoms: _137  and  ZN_426
REMARK   49  A    between atoms: _138  and  ZN_427
REMARK   50  A    between atoms: _139  and  _141
REMARK   51  A    between atoms: _141  and  _142
REMARK   52  A    between atoms: _141  and  _144
REMARK   53  A    between atoms: _144  and  _145
REMARK   54  A    between atoms: _150  and  _151
REMARK   55  A    between atoms: _153  and  _155
REMARK   56  A    between atoms: _155  and  _156
REMARK   57  A    between atoms: _155  and  _158
REMARK   58  A    between atoms: _158  and  _159
REMARK   59  A    between atoms: _162  and  _164
REMARK   60  A    between atoms: _164  and  _165
REMARK   61  A    between atoms: _164  and  _167
REMARK   62  A    between atoms: _167  and  _168
REMARK   63  A    between atoms: _171  and  _173
REMARK   64  A    between atoms: _173  and  _174
REMARK   65  A    between atoms: _173  and  _176
REMARK   66  A    between atoms: _176  and  _177
REMARK   67  A    between atoms: _182  and  _184
REMARK   68  A    between atoms: _184  and  _185
REMARK   69  A    between atoms: _184  and  _187
REMARK   70  A    between atoms: _187  and  _188
REMARK   71  A    between atoms: _193  and  _195
REMARK   72  A    between atoms: _195  and  _196
REMARK   73  A    between atoms: _195  and  _198
REMARK   74  A    between atoms: _198  and  _199
REMARK   75  A    between atoms: _202  and  _204
REMARK   76  A    between atoms: _204  and  _205
REMARK   77  A    between atoms: _204  and  _207
REMARK   78  A    between atoms: _207  and  _208
REMARK   79  A    between atoms: _210  and  _212
REMARK   80  A    between atoms: _212  and  _213
REMARK   81  A    between atoms: _212  and  _215
REMARK   82  A    between atoms: _215  and  _216
REMARK   83  A    between atoms: _220  and  ZN_427
REMARK   84  A    between atoms: _221  and  _223
REMARK   85  A    between atoms: _223  and  _224
REMARK   86  A    between atoms: _223  and  _226
REMARK   87  A    between atoms: _226  and  _227
REMARK   88  A    between atoms: _229  and  _231
REMARK   89  A    between atoms: _231  and  _232
REMARK   90  A    between atoms: _231  and  _234
REMARK   91  A    between atoms: _234  and  _235
REMARK   92  A    between atoms: _239  and  ZN_427
REMARK   93  A    between atoms: _240  and  _242
REMARK   94  A    between atoms: _242  and  _243
REMARK   95  A    between atoms: _242  and  _245
REMARK   96  A    between atoms: _245  and  _246
REMARK   97  A    between atoms: _248  and  _250
REMARK   98  A    between atoms: _250  and  _251
REMARK   99  A    between atoms: _250  and  _253
REMARK  100  A    between atoms: _253  and  _254
REMARK  101  A    between atoms: _259  and  _261
REMARK  102  A    between atoms: _261  and  _262
REMARK  103  A    between atoms: _261  and  _264
REMARK  104  A    between atoms: _264  and  _265
REMARK  105  A    between atoms: _265  and  _266
REMARK  106  A    between atoms: _266  and  _267
REMARK  107  A    between atoms: _276  and  _278
REMARK  108  A    between atoms: _278  and  _279
REMARK  109  A    between atoms: _278  and  _281
REMARK  110  A    between atoms: _281  and  _282
REMARK  111  A    between atoms: _285  and  _287
REMARK  112  A    between atoms: _287  and  _288
REMARK  113  A    between atoms: _287  and  _290
REMARK  114  A    between atoms: _294  and  _295
REMARK  115  A    between atoms: _300  and  _302
REMARK  116  A    between atoms: _302  and  _303
REMARK  117  A    between atoms: _302  and  _305
REMARK  118  A    between atoms: _305  and  _306
REMARK  119  A    between atoms: _306  and  _307
REMARK  120  A    between atoms: _307  and  _308
REMARK  121  A    between atoms: _308  and  _309
REMARK  122  A    between atoms: _313  and  _315
REMARK  123  A    between atoms: _315  and  _316
REMARK  124  A    between atoms: _315  and  _318
REMARK  125  A    between atoms: _318  and  _319
REMARK  126  A    between atoms: _325  and  _327
REMARK  127  A    between atoms: _327  and  _328
REMARK  128  A    between atoms: _327  and  _330
REMARK  129  A    between atoms: _330  and  _331
REMARK  130  A    between atoms: _334  and  _336
REMARK  131  A    between atoms: _336  and  _337
REMARK  132  A    between atoms: _336  and  _339
REMARK  133  A    between atoms: _339  and  _340
REMARK  134  A    between atoms: _340  and  _341
REMARK  135  A    between atoms: _341  and  _342
REMARK  136  A    between atoms: _351  and  _353
REMARK  137  A    between atoms: _353  and  _354
REMARK  138  A    between atoms: _356  and  _358
REMARK  139  A    between atoms: _358  and  _359
REMARK  140  A    between atoms: _361  and  _363
REMARK  141  A    between atoms: _363  and  _364
REMARK  142  A    between atoms: _363  and  _366
REMARK  143  A    between atoms: _366  and  _367
REMARK  144  A    between atoms: _370  and  _372
REMARK  145  A    between atoms: _372  and  _373
REMARK  146  A    between atoms: _372  and  _375
REMARK  147  A    between atoms: _375  and  _376
REMARK  148  A    between atoms: _381  and  _382
REMARK  149  A    between atoms: _384  and  _386
REMARK  150  A    between atoms: _386  and  _387
REMARK  151  A    between atoms: _386  and  _389
REMARK  152  A    between atoms: _389  and  _390
REMARK  153  A    between atoms: _393  and  _395
REMARK  154  A    between atoms: _395  and  _396
REMARK  155  A    between atoms: _398  and  _400
REMARK  156  A    between atoms: _400  and  _401
REMARK  157  A    between atoms: _400  and  _403
REMARK  158  A    between atoms: _403  and  _404
REMARK  159  A    between atoms: _408  and  _409
REMARK  160  A    between atoms: _414  and  _416
REMARK  161  A    between atoms: _416  and  _417
REMARK  162  A    between atoms: _416  and  _419
REMARK  163  A    between atoms: _419  and  _420
REMARK                            x       y       z     vdW  Elec       q    Type
REMARK                         _______ _______ _______ _____ _____    ______ ____
ROOT
ATOM      1  O   HOH     1     -18.416  28.913 -18.282  0.00  0.00    +0.000 OA
ENDROOT
TORSDOF 0
REMARK  Name = ../refined-set-2016/3k5x/3k5x_pocket.pdb
REMARK  163 active torsions:
REMARK  status: ('A' for Active; 'I' for Inactive)
REMARK    1  A    between atoms: _1  and  _3
REMARK    2  A    between atoms: _14  and  _17
REMARK    3  A    between atoms: _17  and  _18
REMARK    4  A    between atoms: _25  and  _26
REMARK    5  A    between atoms: _32  and  _34
REMARK    6  A    between atoms: _34  and  _35
REMARK    7  A    between atoms: _34  and  _37
REMARK    8  A    between atoms: _37  and  _38
REMARK    9  A    between atoms: _48  and  _50
REMARK   10  A    between atoms: _50  and  _51
REMARK   11  A    between atoms: _54  and  _56
REMARK   12  A    between atoms: _56  and  _57
REMARK   13  A    between atoms: _56  and  _59
REMARK   14  A    between atoms: _59  and  _60
REMARK   15  A    between atoms: _62  and  _64
REMARK   16  A    between atoms: _64  and  _65
REMARK   17  A    between atoms: _64  and  _67
REMARK   18  A    between atoms: _70  and  _72
REMARK   19  A    between atoms: _72  and  _73
REMARK   20  A    between atoms: _72  and  _75
REMARK   21  A    between atoms: _75  and  _76
REMARK   22  A    between atoms: _81  and  _82
REMARK   23  A    between atoms: _84  and  _86
REMARK   24  A    between atoms: _86  and  _87
REMARK   25  A    between atoms: _86  and  _89
REMARK   26  A    between atoms: _92  and  _94
REMARK   27  A    between atoms: _94  and  _95
REMARK   28  A    between atoms: _94  and  _97
REMARK   29  A    between atoms: _97  and  _98
REMARK   30  A    between atoms: _98  and  _99
REMARK   31  A    between atoms: _99  and  _100
REMARK   32  A    between atoms: _109  and  _111
REMARK   33  A    between atoms: _111  and  _112
REMARK   34  A    between atoms: _111  and  _114
REMARK   35  A    between atoms: _114  and  _115
REMARK   36  A    between atoms: _117  and  _119
REMARK   37  A    between atoms: _119  and  _120
REMARK   38  A    between atoms: _119  and  _122
REMARK   39  A    between atoms: _122  and  _123
REMARK   40  A    between atoms: _123  and  _124
REMARK   41  A    between atoms: _129  and  _131
REMARK   42  A    between atoms: _131  and  _132
REMARK   43  A    between atoms: _131  and  _134
REMARK   44  A    between atoms: _134  and  _135
REMARK   45  A    between atoms: _135  and  _136
REMARK   46  A    between atoms: _136  and  _137
REMARK   47  A    between atoms: _136  and  _138
REMARK   48  A    between atoms: _137  and  ZN_426
REMARK   49  A    between atoms: _138  and  ZN_427
REMARK   50  A    between atoms: _139  and  _141
REMARK   51  A    between atoms: _141  and  _142
REMARK   52  A    between atoms: _141  and  _144
REMARK   53  A    between atoms: _144  and  _145
REMARK   54  A    between atoms: _150  and  _151
REMARK   55  A    between atoms: _153  and  _155
REMARK   56  A    between atoms: _155  and  _156
REMARK   57  A    between atoms: _155  and  _158
REMARK   58  A    between atoms: _158  and  _159
REMARK   59  A    between atoms: _162  and  _164
REMARK   60  A    between atoms: _164  and  _165
REMARK   61  A    between atoms: _164  and  _167
REMARK   62  A    between atoms: _167  and  _168
REMARK   63  A    between atoms: _171  and  _173
REMARK   64  A    between atoms: _173  and  _174
REMARK   65  A    between atoms: _173  and  _176
REMARK   66  A    between atoms: _176  and  _177
REMARK   67  A    between atoms: _182  and  _184
REMARK   68  A    between atoms: _184  and  _185
REMARK   69  A    between atoms: _184  and  _187
REMARK   70  A    between atoms: _187  and  _188
REMARK   71  A    between atoms: _193  and  _195
REMARK   72  A    between atoms: _195  and  _196
REMARK   73  A    between atoms: _195  and  _198
REMARK   74  A    between atoms: _198  and  _199
REMARK   75  A    between atoms: _202  and  _204
REMARK   76  A    between atoms: _204  and  _205
REMARK   77  A    between atoms: _204  and  _207
REMARK   78  A    between atoms: _207  and  _208
REMARK   79  A    between atoms: _210  and  _212
REMARK   80  A    between atoms: _212  and  _213
REMARK   81  A    between atoms: _212  and  _215
REMARK   82  A    between atoms: _215  and  _216
REMARK   83  A    between atoms: _220  and  ZN_427
REMARK   84  A    between atoms: _221  and  _223
REMARK   85  A    between atoms: _223  and  _224
REMARK   86  A    between atoms: _223  and  _226
REMARK   87  A    between atoms: _226  and  _227
REMARK   88  A    between atoms: _229  and  _231
REMARK   89  A    between atoms: _231  and  _232
REMARK   90  A    between atoms: _231  and  _234
REMARK   91  A    between atoms: _234  and  _235
REMARK   92  A    between atoms: _239  and  ZN_427
REMARK   93  A    between atoms: _240  and  _242
REMARK   94  A    between atoms: _242  and  _243
REMARK   95  A    between atoms: _242  and  _245
REMARK   96  A    between atoms: _245  and  _246
REMARK   97  A    between atoms: _248  and  _250
REMARK   98  A    between atoms: _250  and  _251
REMARK   99  A    between atoms: _250  and  _253
REMARK  100  A    between atoms: _253  and  _254
REMARK  101  A    between atoms: _259  and  _261
REMARK  102  A    between atoms: _261  and  _262
REMARK  103  A    between atoms: _261  and  _264
REMARK  104  A    between atoms: _264  and  _265
REMARK  105  A    between atoms: _265  and  _266
REMARK  106  A    between atoms: _266  and  _267
REMARK  107  A    between atoms: _276  and  _278
REMARK  108  A    between atoms: _278  and  _279
REMARK  109  A    between atoms: _278  and  _281
REMARK  110  A    between atoms: _281  and  _282
REMARK  111  A    between atoms: _285  and  _287
REMARK  112  A    between atoms: _287  and  _288
REMARK  113  A    between atoms: _287  and  _290
REMARK  114  A    between atoms: _294  and  _295
REMARK  115  A    between atoms: _300  and  _302
REMARK  116  A    between atoms: _302  and  _303
REMARK  117  A    between atoms: _302  and  _305
REMARK  118  A    between atoms: _305  and  _306
REMARK  119  A    between atoms: _306  and  _307
REMARK  120  A    between atoms: _307  and  _308
REMARK  121  A    between atoms: _308  and  _309
REMARK  122  A    between atoms: _313  and  _315
REMARK  123  A    between atoms: _315  and  _316
REMARK  124  A    between atoms: _315  and  _318
REMARK  125  A    between atoms: _318  and  _319
REMARK  126  A    between atoms: _325  and  _327
REMARK  127  A    between atoms: _327  and  _328
REMARK  128  A    between atoms: _327  and  _330
REMARK  129  A    between atoms: _330  and  _331
REMARK  130  A    between atoms: _334  and  _336
REMARK  131  A    between atoms: _336  and  _337
REMARK  132  A    between atoms: _336  and  _339
REMARK  133  A    between atoms: _339  and  _340
REMARK  134  A    between atoms: _340  and  _341
REMARK  135  A    between atoms: _341  and  _342
REMARK  136  A    between atoms: _351  and  _353
REMARK  137  A    between atoms: _353  and  _354
REMARK  138  A    between atoms: _356  and  _358
REMARK  139  A    between atoms: _358  and  _359
REMARK  140  A    between atoms: _361  and  _363
REMARK  141  A    between atoms: _363  and  _364
REMARK  142  A    between atoms: _363  and  _366
REMARK  143  A    between atoms: _366  and  _367
REMARK  144  A    between atoms: _370  and  _372
REMARK  145  A    between atoms: _372  and  _373
REMARK  146  A    between atoms: _372  and  _375
REMARK  147  A    between atoms: _375  and  _376
REMARK  148  A    between atoms: _381  and  _382
REMARK  149  A    between atoms: _384  and  _386
REMARK  150  A    between atoms: _386  and  _387
REMARK  151  A    between atoms: _386  and  _389
REMARK  152  A    between atoms: _389  and  _390
REMARK  153  A    between atoms: _393  and  _395
REMARK  154  A    between atoms: _395  and  _396
REMARK  155  A    between atoms: _398  and  _400
REMARK  156  A    between atoms: _400  and  _401
REMARK  157  A    between atoms: _400  and  _403
REMARK  158  A    between atoms: _403  and  _404
REMARK  159  A    between atoms: _408  and  _409
REMARK  160  A    between atoms: _414  and  _416
REMARK  161  A    between atoms: _416  and  _417
REMARK  162  A    between atoms: _416  and  _419
REMARK  163  A    between atoms: _419  and  _420
REMARK                            x       y       z     vdW  Elec       q    Type
REMARK                         _______ _______ _______ _____ _____    ______ ____
ROOT
ATOM      1  O   HOH     1     -27.331  35.239 -15.662  0.00  0.00    +0.000 OA
ENDROOT
TORSDOF 0
REMARK  Name = ../refined-set-2016/3k5x/3k5x_pocket.pdb
REMARK  163 active torsions:
REMARK  status: ('A' for Active; 'I' for Inactive)
REMARK    1  A    between atoms: _1  and  _3
REMARK    2  A    between atoms: _14  and  _17
REMARK    3  A    between atoms: _17  and  _18
REMARK    4  A    between atoms: _25  and  _26
REMARK    5  A    between atoms: _32  and  _34
REMARK    6  A    between atoms: _34  and  _35
REMARK    7  A    between atoms: _34  and  _37
REMARK    8  A    between atoms: _37  and  _38
REMARK    9  A    between atoms: _48  and  _50
REMARK   10  A    between atoms: _50  and  _51
REMARK   11  A    between atoms: _54  and  _56
REMARK   12  A    between atoms: _56  and  _57
REMARK   13  A    between atoms: _56  and  _59
REMARK   14  A    between atoms: _59  and  _60
REMARK   15  A    between atoms: _62  and  _64
REMARK   16  A    between atoms: _64  and  _65
REMARK   17  A    between atoms: _64  and  _67
REMARK   18  A    between atoms: _70  and  _72
REMARK   19  A    between atoms: _72  and  _73
REMARK   20  A    between atoms: _72  and  _75
REMARK   21  A    between atoms: _75  and  _76
REMARK   22  A    between atoms: _81  and  _82
REMARK   23  A    between atoms: _84  and  _86
REMARK   24  A    between atoms: _86  and  _87
REMARK   25  A    between atoms: _86  and  _89
REMARK   26  A    between atoms: _92  and  _94
REMARK   27  A    between atoms: _94  and  _95
REMARK   28  A    between atoms: _94  and  _97
REMARK   29  A    between atoms: _97  and  _98
REMARK   30  A    between atoms: _98  and  _99
REMARK   31  A    between atoms: _99  and  _100
REMARK   32  A    between atoms: _109  and  _111
REMARK   33  A    between atoms: _111  and  _112
REMARK   34  A    between atoms: _111  and  _114
REMARK   35  A    between atoms: _114  and  _115
REMARK   36  A    between atoms: _117  and  _119
REMARK   37  A    between atoms: _119  and  _120
REMARK   38  A    between atoms: _119  and  _122
REMARK   39  A    between atoms: _122  and  _123
REMARK   40  A    between atoms: _123  and  _124
REMARK   41  A    between atoms: _129  and  _131
REMARK   42  A    between atoms: _131  and  _132
REMARK   43  A    between atoms: _131  and  _134
REMARK   44  A    between atoms: _134  and  _135
REMARK   45  A    between atoms: _135  and  _136
REMARK   46  A    between atoms: _136  and  _137
REMARK   47  A    between atoms: _136  and  _138
REMARK   48  A    between atoms: _137  and  ZN_426
REMARK   49  A    between atoms: _138  and  ZN_427
REMARK   50  A    between atoms: _139  and  _141
REMARK   51  A    between atoms: _141  and  _142
REMARK   52  A    between atoms: _141  and  _144
REMARK   53  A    between atoms: _144  and  _145
REMARK   54  A    between atoms: _150  and  _151
REMARK   55  A    between atoms: _153  and  _155
REMARK   56  A    between atoms: _155  and  _156
REMARK   57  A    between atoms: _155  and  _158
REMARK   58  A    between atoms: _158  and  _159
REMARK   59  A    between atoms: _162  and  _164
REMARK   60  A    between atoms: _164  and  _165
REMARK   61  A    between atoms: _164  and  _167
REMARK   62  A    between atoms: _167  and  _168
REMARK   63  A    between atoms: _171  and  _173
REMARK   64  A    between atoms: _173  and  _174
REMARK   65  A    between atoms: _173  and  _176
REMARK   66  A    between atoms: _176  and  _177
REMARK   67  A    between atoms: _182  and  _184
REMARK   68  A    between atoms: _184  and  _185
REMARK   69  A    between atoms: _184  and  _187
REMARK   70  A    between atoms: _187  and  _188
REMARK   71  A    between atoms: _193  and  _195
REMARK   72  A    between atoms: _195  and  _196
REMARK   73  A    between atoms: _195  and  _198
REMARK   74  A    between atoms: _198  and  _199
REMARK   75  A    between atoms: _202  and  _204
REMARK   76  A    between atoms: _204  and  _205
REMARK   77  A    between atoms: _204  and  _207
REMARK   78  A    between atoms: _207  and  _208
REMARK   79  A    between atoms: _210  and  _212
REMARK   80  A    between atoms: _212  and  _213
REMARK   81  A    between atoms: _212  and  _215
REMARK   82  A    between atoms: _215  and  _216
REMARK   83  A    between atoms: _220  and  ZN_427
REMARK   84  A    between atoms: _221  and  _223
REMARK   85  A    between atoms: _223  and  _224
REMARK   86  A    between atoms: _223  and  _226
REMARK   87  A    between atoms: _226  and  _227
REMARK   88  A    between atoms: _229  and  _231
REMARK   89  A    between atoms: _231  and  _232
REMARK   90  A    between atoms: _231  and  _234
REMARK   91  A    between atoms: _234  and  _235
REMARK   92  A    between atoms: _239  and  ZN_427
REMARK   93  A    between atoms: _240  and  _242
REMARK   94  A    between atoms: _242  and  _243
REMARK   95  A    between atoms: _242  and  _245
REMARK   96  A    between atoms: _245  and  _246
REMARK   97  A    between atoms: _248  and  _250
REMARK   98  A    between atoms: _250  and  _251
REMARK   99  A    between atoms: _250  and  _253
REMARK  100  A    between atoms: _253  and  _254
REMARK  101  A    between atoms: _259  and  _261
REMARK  102  A    between atoms: _261  and  _262
REMARK  103  A    between atoms: _261  and  _264
REMARK  104  A    between atoms: _264  and  _265
REMARK  105  A    between atoms: _265  and  _266
REMARK  106  A    between atoms: _266  and  _267
REMARK  107  A    between atoms: _276  and  _278
REMARK  108  A    between atoms: _278  and  _279
REMARK  109  A    between atoms: _278  and  _281
REMARK  110  A    between atoms: _281  and  _282
REMARK  111  A    between atoms: _285  and  _287
REMARK  112  A    between atoms: _287  and  _288
REMARK  113  A    between atoms: _287  and  _290
REMARK  114  A    between atoms: _294  and  _295
REMARK  115  A    between atoms: _300  and  _302
REMARK  116  A    between atoms: _302  and  _303
REMARK  117  A    between atoms: _302  and  _305
REMARK  118  A    between atoms: _305  and  _306
REMARK  119  A    between atoms: _306  and  _307
REMARK  120  A    between atoms: _307  and  _308
REMARK  121  A    between atoms: _308  and  _309
REMARK  122  A    between atoms: _313  and  _315
REMARK  123  A    between atoms: _315  and  _316
REMARK  124  A    between atoms: _315  and  _318
REMARK  125  A    between atoms: _318  and  _319
REMARK  126  A    between atoms: _325  and  _327
REMARK  127  A    between atoms: _327  and  _328
REMARK  128  A    between atoms: _327  and  _330
REMARK  129  A    between atoms: _330  and  _331
REMARK  130  A    between atoms: _334  and  _336
REMARK  131  A    between atoms: _336  and  _337
REMARK  132  A    between atoms: _336  and  _339
REMARK  133  A    between atoms: _339  and  _340
REMARK  134  A    between atoms: _340  and  _341
REMARK  135  A    between atoms: _341  and  _342
REMARK  136  A    between atoms: _351  and  _353
REMARK  137  A    between atoms: _353  and  _354
REMARK  138  A    between atoms: _356  and  _358
REMARK  139  A    between atoms: _358  and  _359
REMARK  140  A    between atoms: _361  and  _363
REMARK  141  A    between atoms: _363  and  _364
REMARK  142  A    between atoms: _363  and  _366
REMARK  143  A    between atoms: _366  and  _367
REMARK  144  A    between atoms: _370  and  _372
REMARK  145  A    between atoms: _372  and  _373
REMARK  146  A    between atoms: _372  and  _375
REMARK  147  A    between atoms: _375  and  _376
REMARK  148  A    between atoms: _381  and  _382
REMARK  149  A    between atoms: _384  and  _386
REMARK  150  A    between atoms: _386  and  _387
REMARK  151  A    between atoms: _386  and  _389
REMARK  152  A    between atoms: _389  and  _390
REMARK  153  A    between atoms: _393  and  _395
REMARK  154  A    between atoms: _395  and  _396
REMARK  155  A    between atoms: _398  and  _400
REMARK  156  A    between atoms: _400  and  _401
REMARK  157  A    between atoms: _400  and  _403
REMARK  158  A    between atoms: _403  and  _404
REMARK  159  A    between atoms: _408  and  _409
REMARK  160  A    between atoms: _414  and  _416
REMARK  161  A    between atoms: _416  and  _417
REMARK  162  A    between atoms: _416  and  _419
REMARK  163  A    between atoms: _419  and  _420
REMARK                            x       y       z     vdW  Elec       q    Type
REMARK                         _______ _______ _______ _____ _____    ______ ____
ROOT
ATOM      1  O   HOH     1     -29.349  36.962 -14.753  0.00  0.00    +0.000 OA
ENDROOT
TORSDOF 0
REMARK  Name = ../refined-set-2016/3k5x/3k5x_pocket.pdb
REMARK  163 active torsions:
REMARK  status: ('A' for Active; 'I' for Inactive)
REMARK    1  A    between atoms: _1  and  _3
REMARK    2  A    between atoms: _14  and  _17
REMARK    3  A    between atoms: _17  and  _18
REMARK    4  A    between atoms: _25  and  _26
REMARK    5  A    between atoms: _32  and  _34
REMARK    6  A    between atoms: _34  and  _35
REMARK    7  A    between atoms: _34  and  _37
REMARK    8  A    between atoms: _37  and  _38
REMARK    9  A    between atoms: _48  and  _50
REMARK   10  A    between atoms: _50  and  _51
REMARK   11  A    between atoms: _54  and  _56
REMARK   12  A    between atoms: _56  and  _57
REMARK   13  A    between atoms: _56  and  _59
REMARK   14  A    between atoms: _59  and  _60
REMARK   15  A    between atoms: _62  and  _64
REMARK   16  A    between atoms: _64  and  _65
REMARK   17  A    between atoms: _64  and  _67
REMARK   18  A    between atoms: _70  and  _72
REMARK   19  A    between atoms: _72  and  _73
REMARK   20  A    between atoms: _72  and  _75
REMARK   21  A    between atoms: _75  and  _76
REMARK   22  A    between atoms: _81  and  _82
REMARK   23  A    between atoms: _84  and  _86
REMARK   24  A    between atoms: _86  and  _87
REMARK   25  A    between atoms: _86  and  _89
REMARK   26  A    between atoms: _92  and  _94
REMARK   27  A    between atoms: _94  and  _95
REMARK   28  A    between atoms: _94  and  _97
REMARK   29  A    between atoms: _97  and  _98
REMARK   30  A    between atoms: _98  and  _99
REMARK   31  A    between atoms: _99  and  _100
REMARK   32  A    between atoms: _109  and  _111
REMARK   33  A    between atoms: _111  and  _112
REMARK   34  A    between atoms: _111  and  _114
REMARK   35  A    between atoms: _114  and  _115
REMARK   36  A    between atoms: _117  and  _119
REMARK   37  A    between atoms: _119  and  _120
REMARK   38  A    between atoms: _119  and  _122
REMARK   39  A    between atoms: _122  and  _123
REMARK   40  A    between atoms: _123  and  _124
REMARK   41  A    between atoms: _129  and  _131
REMARK   42  A    between atoms: _131  and  _132
REMARK   43  A    between atoms: _131  and  _134
REMARK   44  A    between atoms: _134  and  _135
REMARK   45  A    between atoms: _135  and  _136
REMARK   46  A    between atoms: _136  and  _137
REMARK   47  A    between atoms: _136  and  _138
REMARK   48  A    between atoms: _137  and  ZN_426
REMARK   49  A    between atoms: _138  and  ZN_427
REMARK   50  A    between atoms: _139  and  _141
REMARK   51  A    between atoms: _141  and  _142
REMARK   52  A    between atoms: _141  and  _144
REMARK   53  A    between atoms: _144  and  _145
REMARK   54  A    between atoms: _150  and  _151
REMARK   55  A    between atoms: _153  and  _155
REMARK   56  A    between atoms: _155  and  _156
REMARK   57  A    between atoms: _155  and  _158
REMARK   58  A    between atoms: _158  and  _159
REMARK   59  A    between atoms: _162  and  _164
REMARK   60  A    between atoms: _164  and  _165
REMARK   61  A    between atoms: _164  and  _167
REMARK   62  A    between atoms: _167  and  _168
REMARK   63  A    between atoms: _171  and  _173
REMARK   64  A    between atoms: _173  and  _174
REMARK   65  A    between atoms: _173  and  _176
REMARK   66  A    between atoms: _176  and  _177
REMARK   67  A    between atoms: _182  and  _184
REMARK   68  A    between atoms: _184  and  _185
REMARK   69  A    between atoms: _184  and  _187
REMARK   70  A    between atoms: _187  and  _188
REMARK   71  A    between atoms: _193  and  _195
REMARK   72  A    between atoms: _195  and  _196
REMARK   73  A    between atoms: _195  and  _198
REMARK   74  A    between atoms: _198  and  _199
REMARK   75  A    between atoms: _202  and  _204
REMARK   76  A    between atoms: _204  and  _205
REMARK   77  A    between atoms: _204  and  _207
REMARK   78  A    between atoms: _207  and  _208
REMARK   79  A    between atoms: _210  and  _212
REMARK   80  A    between atoms: _212  and  _213
REMARK   81  A    between atoms: _212  and  _215
REMARK   82  A    between atoms: _215  and  _216
REMARK   83  A    between atoms: _220  and  ZN_427
REMARK   84  A    between atoms: _221  and  _223
REMARK   85  A    between atoms: _223  and  _224
REMARK   86  A    between atoms: _223  and  _226
REMARK   87  A    between atoms: _226  and  _227
REMARK   88  A    between atoms: _229  and  _231
REMARK   89  A    between atoms: _231  and  _232
REMARK   90  A    between atoms: _231  and  _234
REMARK   91  A    between atoms: _234  and  _235
REMARK   92  A    between atoms: _239  and  ZN_427
REMARK   93  A    between atoms: _240  and  _242
REMARK   94  A    between atoms: _242  and  _243
REMARK   95  A    between atoms: _242  and  _245
REMARK   96  A    between atoms: _245  and  _246
REMARK   97  A    between atoms: _248  and  _250
REMARK   98  A    between atoms: _250  and  _251
REMARK   99  A    between atoms: _250  and  _253
REMARK  100  A    between atoms: _253  and  _254
REMARK  101  A    between atoms: _259  and  _261
REMARK  102  A    between atoms: _261  and  _262
REMARK  103  A    between atoms: _261  and  _264
REMARK  104  A    between atoms: _264  and  _265
REMARK  105  A    between atoms: _265  and  _266
REMARK  106  A    between atoms: _266  and  _267
REMARK  107  A    between atoms: _276  and  _278
REMARK  108  A    between atoms: _278  and  _279
REMARK  109  A    between atoms: _278  and  _281
REMARK  110  A    between atoms: _281  and  _282
REMARK  111  A    between atoms: _285  and  _287
REMARK  112  A    between atoms: _287  and  _288
REMARK  113  A    between atoms: _287  and  _290
REMARK  114  A    between atoms: _294  and  _295
REMARK  115  A    between atoms: _300  and  _302
REMARK  116  A    between atoms: _302  and  _303
REMARK  117  A    between atoms: _302  and  _305
REMARK  118  A    between atoms: _305  and  _306
REMARK  119  A    between atoms: _306  and  _307
REMARK  120  A    between atoms: _307  and  _308
REMARK  121  A    between atoms: _308  and  _309
REMARK  122  A    between atoms: _313  and  _315
REMARK  123  A    between atoms: _315  and  _316
REMARK  124  A    between atoms: _315  and  _318
REMARK  125  A    between atoms: _318  and  _319
REMARK  126  A    between atoms: _325  and  _327
REMARK  127  A    between atoms: _327  and  _328
REMARK  128  A    between atoms: _327  and  _330
REMARK  129  A    between atoms: _330  and  _331
REMARK  130  A    between atoms: _334  and  _336
REMARK  131  A    between atoms: _336  and  _337
REMARK  132  A    between atoms: _336  and  _339
REMARK  133  A    between atoms: _339  and  _340
REMARK  134  A    between atoms: _340  and  _341
REMARK  135  A    between atoms: _341  and  _342
REMARK  136  A    between atoms: _351  and  _353
REMARK  137  A    between atoms: _353  and  _354
REMARK  138  A    between atoms: _356  and  _358
REMARK  139  A    between atoms: _358  and  _359
REMARK  140  A    between atoms: _361  and  _363
REMARK  141  A    between atoms: _363  and  _364
REMARK  142  A    between atoms: _363  and  _366
REMARK  143  A    between atoms: _366  and  _367
REMARK  144  A    between atoms: _370  and  _372
REMARK  145  A    between atoms: _372  and  _373
REMARK  146  A    between atoms: _372  and  _375
REMARK  147  A    between atoms: _375  and  _376
REMARK  148  A    between atoms: _381  and  _382
REMARK  149  A    between atoms: _384  and  _386
REMARK  150  A    between atoms: _386  and  _387
REMARK  151  A    between atoms: _386  and  _389
REMARK  152  A    between atoms: _389  and  _390
REMARK  153  A    between atoms: _393  and  _395
REMARK  154  A    between atoms: _395  and  _396
REMARK  155  A    between atoms: _398  and  _400
REMARK  156  A    between atoms: _400  and  _401
REMARK  157  A    between atoms: _400  and  _403
REMARK  158  A    between atoms: _403  and  _404
REMARK  159  A    between atoms: _408  and  _409
REMARK  160  A    between atoms: _414  and  _416
REMARK  161  A    between atoms: _416  and  _417
REMARK  162  A    between atoms: _416  and  _419
REMARK  163  A    between atoms: _419  and  _420
REMARK                            x       y       z     vdW  Elec       q    Type
REMARK                         _______ _______ _______ _____ _____    ______ ____
ROOT
ATOM      1  O   HOH     1     -21.157  37.095 -14.662  0.00  0.00    +0.000 OA
ENDROOT
TORSDOF 0
REMARK  Name = ../refined-set-2016/3k5x/3k5x_pocket.pdb
REMARK  163 active torsions:
REMARK  status: ('A' for Active; 'I' for Inactive)
REMARK    1  A    between atoms: _1  and  _3
REMARK    2  A    between atoms: _14  and  _17
REMARK    3  A    between atoms: _17  and  _18
REMARK    4  A    between atoms: _25  and  _26
REMARK    5  A    between atoms: _32  and  _34
REMARK    6  A    between atoms: _34  and  _35
REMARK    7  A    between atoms: _34  and  _37
REMARK    8  A    between atoms: _37  and  _38
REMARK    9  A    between atoms: _48  and  _50
REMARK   10  A    between atoms: _50  and  _51
REMARK   11  A    between atoms: _54  and  _56
REMARK   12  A    between atoms: _56  and  _57
REMARK   13  A    between atoms: _56  and  _59
REMARK   14  A    between atoms: _59  and  _60
REMARK   15  A    between atoms: _62  and  _64
REMARK   16  A    between atoms: _64  and  _65
REMARK   17  A    between atoms: _64  and  _67
REMARK   18  A    between atoms: _70  and  _72
REMARK   19  A    between atoms: _72  and  _73
REMARK   20  A    between atoms: _72  and  _75
REMARK   21  A    between atoms: _75  and  _76
REMARK   22  A    between atoms: _81  and  _82
REMARK   23  A    between atoms: _84  and  _86
REMARK   24  A    between atoms: _86  and  _87
REMARK   25  A    between atoms: _86  and  _89
REMARK   26  A    between atoms: _92  and  _94
REMARK   27  A    between atoms: _94  and  _95
REMARK   28  A    between atoms: _94  and  _97
REMARK   29  A    between atoms: _97  and  _98
REMARK   30  A    between atoms: _98  and  _99
REMARK   31  A    between atoms: _99  and  _100
REMARK   32  A    between atoms: _109  and  _111
REMARK   33  A    between atoms: _111  and  _112
REMARK   34  A    between atoms: _111  and  _114
REMARK   35  A    between atoms: _114  and  _115
REMARK   36  A    between atoms: _117  and  _119
REMARK   37  A    between atoms: _119  and  _120
REMARK   38  A    between atoms: _119  and  _122
REMARK   39  A    between atoms: _122  and  _123
REMARK   40  A    between atoms: _123  and  _124
REMARK   41  A    between atoms: _129  and  _131
REMARK   42  A    between atoms: _131  and  _132
REMARK   43  A    between atoms: _131  and  _134
REMARK   44  A    between atoms: _134  and  _135
REMARK   45  A    between atoms: _135  and  _136
REMARK   46  A    between atoms: _136  and  _137
REMARK   47  A    between atoms: _136  and  _138
REMARK   48  A    between atoms: _137  and  ZN_426
REMARK   49  A    between atoms: _138  and  ZN_427
REMARK   50  A    between atoms: _139  and  _141
REMARK   51  A    between atoms: _141  and  _142
REMARK   52  A    between atoms: _141  and  _144
REMARK   53  A    between atoms: _144  and  _145
REMARK   54  A    between atoms: _150  and  _151
REMARK   55  A    between atoms: _153  and  _155
REMARK   56  A    between atoms: _155  and  _156
REMARK   57  A    between atoms: _155  and  _158
REMARK   58  A    between atoms: _158  and  _159
REMARK   59  A    between atoms: _162  and  _164
REMARK   60  A    between atoms: _164  and  _165
REMARK   61  A    between atoms: _164  and  _167
REMARK   62  A    between atoms: _167  and  _168
REMARK   63  A    between atoms: _171  and  _173
REMARK   64  A    between atoms: _173  and  _174
REMARK   65  A    between atoms: _173  and  _176
REMARK   66  A    between atoms: _176  and  _177
REMARK   67  A    between atoms: _182  and  _184
REMARK   68  A    between atoms: _184  and  _185
REMARK   69  A    between atoms: _184  and  _187
REMARK   70  A    between atoms: _187  and  _188
REMARK   71  A    between atoms: _193  and  _195
REMARK   72  A    between atoms: _195  and  _196
REMARK   73  A    between atoms: _195  and  _198
REMARK   74  A    between atoms: _198  and  _199
REMARK   75  A    between atoms: _202  and  _204
REMARK   76  A    between atoms: _204  and  _205
REMARK   77  A    between atoms: _204  and  _207
REMARK   78  A    between atoms: _207  and  _208
REMARK   79  A    between atoms: _210  and  _212
REMARK   80  A    between atoms: _212  and  _213
REMARK   81  A    between atoms: _212  and  _215
REMARK   82  A    between atoms: _215  and  _216
REMARK   83  A    between atoms: _220  and  ZN_427
REMARK   84  A    between atoms: _221  and  _223
REMARK   85  A    between atoms: _223  and  _224
REMARK   86  A    between atoms: _223  and  _226
REMARK   87  A    between atoms: _226  and  _227
REMARK   88  A    between atoms: _229  and  _231
REMARK   89  A    between atoms: _231  and  _232
REMARK   90  A    between atoms: _231  and  _234
REMARK   91  A    between atoms: _234  and  _235
REMARK   92  A    between atoms: _239  and  ZN_427
REMARK   93  A    between atoms: _240  and  _242
REMARK   94  A    between atoms: _242  and  _243
REMARK   95  A    between atoms: _242  and  _245
REMARK   96  A    between atoms: _245  and  _246
REMARK   97  A    between atoms: _248  and  _250
REMARK   98  A    between atoms: _250  and  _251
REMARK   99  A    between atoms: _250  and  _253
REMARK  100  A    between atoms: _253  and  _254
REMARK  101  A    between atoms: _259  and  _261
REMARK  102  A    between atoms: _261  and  _262
REMARK  103  A    between atoms: _261  and  _264
REMARK  104  A    between atoms: _264  and  _265
REMARK  105  A    between atoms: _265  and  _266
REMARK  106  A    between atoms: _266  and  _267
REMARK  107  A    between atoms: _276  and  _278
REMARK  108  A    between atoms: _278  and  _279
REMARK  109  A    between atoms: _278  and  _281
REMARK  110  A    between atoms: _281  and  _282
REMARK  111  A    between atoms: _285  and  _287
REMARK  112  A    between atoms: _287  and  _288
REMARK  113  A    between atoms: _287  and  _290
REMARK  114  A    between atoms: _294  and  _295
REMARK  115  A    between atoms: _300  and  _302
REMARK  116  A    between atoms: _302  and  _303
REMARK  117  A    between atoms: _302  and  _305
REMARK  118  A    between atoms: _305  and  _306
REMARK  119  A    between atoms: _306  and  _307
REMARK  120  A    between atoms: _307  and  _308
REMARK  121  A    between atoms: _308  and  _309
REMARK  122  A    between atoms: _313  and  _315
REMARK  123  A    between atoms: _315  and  _316
REMARK  124  A    between atoms: _315  and  _318
REMARK  125  A    between atoms: _318  and  _319
REMARK  126  A    between atoms: _325  and  _327
REMARK  127  A    between atoms: _327  and  _328
REMARK  128  A    between atoms: _327  and  _330
REMARK  129  A    between atoms: _330  and  _331
REMARK  130  A    between atoms: _334  and  _336
REMARK  131  A    between atoms: _336  and  _337
REMARK  132  A    between atoms: _336  and  _339
REMARK  133  A    between atoms: _339  and  _340
REMARK  134  A    between atoms: _340  and  _341
REMARK  135  A    between atoms: _341  and  _342
REMARK  136  A    between atoms: _351  and  _353
REMARK  137  A    between atoms: _353  and  _354
REMARK  138  A    between atoms: _356  and  _358
REMARK  139  A    between atoms: _358  and  _359
REMARK  140  A    between atoms: _361  and  _363
REMARK  141  A    between atoms: _363  and  _364
REMARK  142  A    between atoms: _363  and  _366
REMARK  143  A    between atoms: _366  and  _367
REMARK  144  A    between atoms: _370  and  _372
REMARK  145  A    between atoms: _372  and  _373
REMARK  146  A    between atoms: _372  and  _375
REMARK  147  A    between atoms: _375  and  _376
REMARK  148  A    between atoms: _381  and  _382
REMARK  149  A    between atoms: _384  and  _386
REMARK  150  A    between atoms: _386  and  _387
REMARK  151  A    between atoms: _386  and  _389
REMARK  152  A    between atoms: _389  and  _390
REMARK  153  A    between atoms: _393  and  _395
REMARK  154  A    between atoms: _395  and  _396
REMARK  155  A    between atoms: _398  and  _400
REMARK  156  A    between atoms: _400  and  _401
REMARK  157  A    between atoms: _400  and  _403
REMARK  158  A    between atoms: _403  and  _404
REMARK  159  A    between atoms: _408  and  _409
REMARK  160  A    between atoms: _414  and  _416
REMARK  161  A    between atoms: _416  and  _417
REMARK  162  A    between atoms: _416  and  _419
REMARK  163  A    between atoms: _419  and  _420
REMARK                            x       y       z     vdW  Elec       q    Type
REMARK                         _______ _______ _______ _____ _____    ______ ____
ROOT
ATOM      1  O   HOH     1     -24.548  26.296  -5.307  0.00  0.00    +0.000 OA
ENDROOT
TORSDOF 0
REMARK  Name = ../refined-set-2016/3k5x/3k5x_pocket.pdb
REMARK  163 active torsions:
REMARK  status: ('A' for Active; 'I' for Inactive)
REMARK    1  A    between atoms: _1  and  _3
REMARK    2  A    between atoms: _14  and  _17
REMARK    3  A    between atoms: _17  and  _18
REMARK    4  A    between atoms: _25  and  _26
REMARK    5  A    between atoms: _32  and  _34
REMARK    6  A    between atoms: _34  and  _35
REMARK    7  A    between atoms: _34  and  _37
REMARK    8  A    between atoms: _37  and  _38
REMARK    9  A    between atoms: _48  and  _50
REMARK   10  A    between atoms: _50  and  _51
REMARK   11  A    between atoms: _54  and  _56
REMARK   12  A    between atoms: _56  and  _57
REMARK   13  A    between atoms: _56  and  _59
REMARK   14  A    between atoms: _59  and  _60
REMARK   15  A    between atoms: _62  and  _64
REMARK   16  A    between atoms: _64  and  _65
REMARK   17  A    between atoms: _64  and  _67
REMARK   18  A    between atoms: _70  and  _72
REMARK   19  A    between atoms: _72  and  _73
REMARK   20  A    between atoms: _72  and  _75
REMARK   21  A    between atoms: _75  and  _76
REMARK   22  A    between atoms: _81  and  _82
REMARK   23  A    between atoms: _84  and  _86
REMARK   24  A    between atoms: _86  and  _87
REMARK   25  A    between atoms: _86  and  _89
REMARK   26  A    between atoms: _92  and  _94
REMARK   27  A    between atoms: _94  and  _95
REMARK   28  A    between atoms: _94  and  _97
REMARK   29  A    between atoms: _97  and  _98
REMARK   30  A    between atoms: _98  and  _99
REMARK   31  A    between atoms: _99  and  _100
REMARK   32  A    between atoms: _109  and  _111
REMARK   33  A    between atoms: _111  and  _112
REMARK   34  A    between atoms: _111  and  _114
REMARK   35  A    between atoms: _114  and  _115
REMARK   36  A    between atoms: _117  and  _119
REMARK   37  A    between atoms: _119  and  _120
REMARK   38  A    between atoms: _119  and  _122
REMARK   39  A    between atoms: _122  and  _123
REMARK   40  A    between atoms: _123  and  _124
REMARK   41  A    between atoms: _129  and  _131
REMARK   42  A    between atoms: _131  and  _132
REMARK   43  A    between atoms: _131  and  _134
REMARK   44  A    between atoms: _134  and  _135
REMARK   45  A    between atoms: _135  and  _136
REMARK   46  A    between atoms: _136  and  _137
REMARK   47  A    between atoms: _136  and  _138
REMARK   48  A    between atoms: _137  and  ZN_426
REMARK   49  A    between atoms: _138  and  ZN_427
REMARK   50  A    between atoms: _139  and  _141
REMARK   51  A    between atoms: _141  and  _142
REMARK   52  A    between atoms: _141  and  _144
REMARK   53  A    between atoms: _144  and  _145
REMARK   54  A    between atoms: _150  and  _151
REMARK   55  A    between atoms: _153  and  _155
REMARK   56  A    between atoms: _155  and  _156
REMARK   57  A    between atoms: _155  and  _158
REMARK   58  A    between atoms: _158  and  _159
REMARK   59  A    between atoms: _162  and  _164
REMARK   60  A    between atoms: _164  and  _165
REMARK   61  A    between atoms: _164  and  _167
REMARK   62  A    between atoms: _167  and  _168
REMARK   63  A    between atoms: _171  and  _173
REMARK   64  A    between atoms: _173  and  _174
REMARK   65  A    between atoms: _173  and  _176
REMARK   66  A    between atoms: _176  and  _177
REMARK   67  A    between atoms: _182  and  _184
REMARK   68  A    between atoms: _184  and  _185
REMARK   69  A    between atoms: _184  and  _187
REMARK   70  A    between atoms: _187  and  _188
REMARK   71  A    between atoms: _193  and  _195
REMARK   72  A    between atoms: _195  and  _196
REMARK   73  A    between atoms: _195  and  _198
REMARK   74  A    between atoms: _198  and  _199
REMARK   75  A    between atoms: _202  and  _204
REMARK   76  A    between atoms: _204  and  _205
REMARK   77  A    between atoms: _204  and  _207
REMARK   78  A    between atoms: _207  and  _208
REMARK   79  A    between atoms: _210  and  _212
REMARK   80  A    between atoms: _212  and  _213
REMARK   81  A    between atoms: _212  and  _215
REMARK   82  A    between atoms: _215  and  _216
REMARK   83  A    between atoms: _220  and  ZN_427
REMARK   84  A    between atoms: _221  and  _223
REMARK   85  A    between atoms: _223  and  _224
REMARK   86  A    between atoms: _223  and  _226
REMARK   87  A    between atoms: _226  and  _227
REMARK   88  A    between atoms: _229  and  _231
REMARK   89  A    between atoms: _231  and  _232
REMARK   90  A    between atoms: _231  and  _234
REMARK   91  A    between atoms: _234  and  _235
REMARK   92  A    between atoms: _239  and  ZN_427
REMARK   93  A    between atoms: _240  and  _242
REMARK   94  A    between atoms: _242  and  _243
REMARK   95  A    between atoms: _242  and  _245
REMARK   96  A    between atoms: _245  and  _246
REMARK   97  A    between atoms: _248  and  _250
REMARK   98  A    between atoms: _250  and  _251
REMARK   99  A    between atoms: _250  and  _253
REMARK  100  A    between atoms: _253  and  _254
REMARK  101  A    between atoms: _259  and  _261
REMARK  102  A    between atoms: _261  and  _262
REMARK  103  A    between atoms: _261  and  _264
REMARK  104  A    between atoms: _264  and  _265
REMARK  105  A    between atoms: _265  and  _266
REMARK  106  A    between atoms: _266  and  _267
REMARK  107  A    between atoms: _276  and  _278
REMARK  108  A    between atoms: _278  and  _279
REMARK  109  A    between atoms: _278  and  _281
REMARK  110  A    between atoms: _281  and  _282
REMARK  111  A    between atoms: _285  and  _287
REMARK  112  A    between atoms: _287  and  _288
REMARK  113  A    between atoms: _287  and  _290
REMARK  114  A    between atoms: _294  and  _295
REMARK  115  A    between atoms: _300  and  _302
REMARK  116  A    between atoms: _302  and  _303
REMARK  117  A    between atoms: _302  and  _305
REMARK  118  A    between atoms: _305  and  _306
REMARK  119  A    between atoms: _306  and  _307
REMARK  120  A    between atoms: _307  and  _308
REMARK  121  A    between atoms: _308  and  _309
REMARK  122  A    between atoms: _313  and  _315
REMARK  123  A    between atoms: _315  and  _316
REMARK  124  A    between atoms: _315  and  _318
REMARK  125  A    between atoms: _318  and  _319
REMARK  126  A    between atoms: _325  and  _327
REMARK  127  A    between atoms: _327  and  _328
REMARK  128  A    between atoms: _327  and  _330
REMARK  129  A    between atoms: _330  and  _331
REMARK  130  A    between atoms: _334  and  _336
REMARK  131  A    between atoms: _336  and  _337
REMARK  132  A    between atoms: _336  and  _339
REMARK  133  A    between atoms: _339  and  _340
REMARK  134  A    between atoms: _340  and  _341
REMARK  135  A    between atoms: _341  and  _342
REMARK  136  A    between atoms: _351  and  _353
REMARK  137  A    between atoms: _353  and  _354
REMARK  138  A    between atoms: _356  and  _358
REMARK  139  A    between atoms: _358  and  _359
REMARK  140  A    between atoms: _361  and  _363
REMARK  141  A    between atoms: _363  and  _364
REMARK  142  A    between atoms: _363  and  _366
REMARK  143  A    between atoms: _366  and  _367
REMARK  144  A    between atoms: _370  and  _372
REMARK  145  A    between atoms: _372  and  _373
REMARK  146  A    between atoms: _372  and  _375
REMARK  147  A    between atoms: _375  and  _376
REMARK  148  A    between atoms: _381  and  _382
REMARK  149  A    between atoms: _384  and  _386
REMARK  150  A    between atoms: _386  and  _387
REMARK  151  A    between atoms: _386  and  _389
REMARK  152  A    between atoms: _389  and  _390
REMARK  153  A    between atoms: _393  and  _395
REMARK  154  A    between atoms: _395  and  _396
REMARK  155  A    between atoms: _398  and  _400
REMARK  156  A    between atoms: _400  and  _401
REMARK  157  A    between atoms: _400  and  _403
REMARK  158  A    between atoms: _403  and  _404
REMARK  159  A    between atoms: _408  and  _409
REMARK  160  A    between atoms: _414  and  _416
REMARK  161  A    between atoms: _416  and  _417
REMARK  162  A    between atoms: _416  and  _419
REMARK  163  A    between atoms: _419  and  _420
REMARK                            x       y       z     vdW  Elec       q    Type
REMARK                         _______ _______ _______ _____ _____    ______ ____
ROOT
ATOM      1  O   HOH     1     -28.592  30.949  -4.376  0.00  0.00    +0.000 OA
ENDROOT
TORSDOF 0
REMARK  Name = ../refined-set-2016/3k5x/3k5x_pocket.pdb
REMARK  163 active torsions:
REMARK  status: ('A' for Active; 'I' for Inactive)
REMARK    1  A    between atoms: _1  and  _3
REMARK    2  A    between atoms: _14  and  _17
REMARK    3  A    between atoms: _17  and  _18
REMARK    4  A    between atoms: _25  and  _26
REMARK    5  A    between atoms: _32  and  _34
REMARK    6  A    between atoms: _34  and  _35
REMARK    7  A    between atoms: _34  and  _37
REMARK    8  A    between atoms: _37  and  _38
REMARK    9  A    between atoms: _48  and  _50
REMARK   10  A    between atoms: _50  and  _51
REMARK   11  A    between atoms: _54  and  _56
REMARK   12  A    between atoms: _56  and  _57
REMARK   13  A    between atoms: _56  and  _59
REMARK   14  A    between atoms: _59  and  _60
REMARK   15  A    between atoms: _62  and  _64
REMARK   16  A    between atoms: _64  and  _65
REMARK   17  A    between atoms: _64  and  _67
REMARK   18  A    between atoms: _70  and  _72
REMARK   19  A    between atoms: _72  and  _73
REMARK   20  A    between atoms: _72  and  _75
REMARK   21  A    between atoms: _75  and  _76
REMARK   22  A    between atoms: _81  and  _82
REMARK   23  A    between atoms: _84  and  _86
REMARK   24  A    between atoms: _86  and  _87
REMARK   25  A    between atoms: _86  and  _89
REMARK   26  A    between atoms: _92  and  _94
REMARK   27  A    between atoms: _94  and  _95
REMARK   28  A    between atoms: _94  and  _97
REMARK   29  A    between atoms: _97  and  _98
REMARK   30  A    between atoms: _98  and  _99
REMARK   31  A    between atoms: _99  and  _100
REMARK   32  A    between atoms: _109  and  _111
REMARK   33  A    between atoms: _111  and  _112
REMARK   34  A    between atoms: _111  and  _114
REMARK   35  A    between atoms: _114  and  _115
REMARK   36  A    between atoms: _117  and  _119
REMARK   37  A    between atoms: _119  and  _120
REMARK   38  A    between atoms: _119  and  _122
REMARK   39  A    between atoms: _122  and  _123
REMARK   40  A    between atoms: _123  and  _124
REMARK   41  A    between atoms: _129  and  _131
REMARK   42  A    between atoms: _131  and  _132
REMARK   43  A    between atoms: _131  and  _134
REMARK   44  A    between atoms: _134  and  _135
REMARK   45  A    between atoms: _135  and  _136
REMARK   46  A    between atoms: _136  and  _137
REMARK   47  A    between atoms: _136  and  _138
REMARK   48  A    between atoms: _137  and  ZN_426
REMARK   49  A    between atoms: _138  and  ZN_427
REMARK   50  A    between atoms: _139  and  _141
REMARK   51  A    between atoms: _141  and  _142
REMARK   52  A    between atoms: _141  and  _144
REMARK   53  A    between atoms: _144  and  _145
REMARK   54  A    between atoms: _150  and  _151
REMARK   55  A    between atoms: _153  and  _155
REMARK   56  A    between atoms: _155  and  _156
REMARK   57  A    between atoms: _155  and  _158
REMARK   58  A    between atoms: _158  and  _159
REMARK   59  A    between atoms: _162  and  _164
REMARK   60  A    between atoms: _164  and  _165
REMARK   61  A    between atoms: _164  and  _167
REMARK   62  A    between atoms: _167  and  _168
REMARK   63  A    between atoms: _171  and  _173
REMARK   64  A    between atoms: _173  and  _174
REMARK   65  A    between atoms: _173  and  _176
REMARK   66  A    between atoms: _176  and  _177
REMARK   67  A    between atoms: _182  and  _184
REMARK   68  A    between atoms: _184  and  _185
REMARK   69  A    between atoms: _184  and  _187
REMARK   70  A    between atoms: _187  and  _188
REMARK   71  A    between atoms: _193  and  _195
REMARK   72  A    between atoms: _195  and  _196
REMARK   73  A    between atoms: _195  and  _198
REMARK   74  A    between atoms: _198  and  _199
REMARK   75  A    between atoms: _202  and  _204
REMARK   76  A    between atoms: _204  and  _205
REMARK   77  A    between atoms: _204  and  _207
REMARK   78  A    between atoms: _207  and  _208
REMARK   79  A    between atoms: _210  and  _212
REMARK   80  A    between atoms: _212  and  _213
REMARK   81  A    between atoms: _212  and  _215
REMARK   82  A    between atoms: _215  and  _216
REMARK   83  A    between atoms: _220  and  ZN_427
REMARK   84  A    between atoms: _221  and  _223
REMARK   85  A    between atoms: _223  and  _224
REMARK   86  A    between atoms: _223  and  _226
REMARK   87  A    between atoms: _226  and  _227
REMARK   88  A    between atoms: _229  and  _231
REMARK   89  A    between atoms: _231  and  _232
REMARK   90  A    between atoms: _231  and  _234
REMARK   91  A    between atoms: _234  and  _235
REMARK   92  A    between atoms: _239  and  ZN_427
REMARK   93  A    between atoms: _240  and  _242
REMARK   94  A    between atoms: _242  and  _243
REMARK   95  A    between atoms: _242  and  _245
REMARK   96  A    between atoms: _245  and  _246
REMARK   97  A    between atoms: _248  and  _250
REMARK   98  A    between atoms: _250  and  _251
REMARK   99  A    between atoms: _250  and  _253
REMARK  100  A    between atoms: _253  and  _254
REMARK  101  A    between atoms: _259  and  _261
REMARK  102  A    between atoms: _261  and  _262
REMARK  103  A    between atoms: _261  and  _264
REMARK  104  A    between atoms: _264  and  _265
REMARK  105  A    between atoms: _265  and  _266
REMARK  106  A    between atoms: _266  and  _267
REMARK  107  A    between atoms: _276  and  _278
REMARK  108  A    between atoms: _278  and  _279
REMARK  109  A    between atoms: _278  and  _281
REMARK  110  A    between atoms: _281  and  _282
REMARK  111  A    between atoms: _285  and  _287
REMARK  112  A    between atoms: _287  and  _288
REMARK  113  A    between atoms: _287  and  _290
REMARK  114  A    between atoms: _294  and  _295
REMARK  115  A    between atoms: _300  and  _302
REMARK  116  A    between atoms: _302  and  _303
REMARK  117  A    between atoms: _302  and  _305
REMARK  118  A    between atoms: _305  and  _306
REMARK  119  A    between atoms: _306  and  _307
REMARK  120  A    between atoms: _307  and  _308
REMARK  121  A    between atoms: _308  and  _309
REMARK  122  A    between atoms: _313  and  _315
REMARK  123  A    between atoms: _315  and  _316
REMARK  124  A    between atoms: _315  and  _318
REMARK  125  A    between atoms: _318  and  _319
REMARK  126  A    between atoms: _325  and  _327
REMARK  127  A    between atoms: _327  and  _328
REMARK  128  A    between atoms: _327  and  _330
REMARK  129  A    between atoms: _330  and  _331
REMARK  130  A    between atoms: _334  and  _336
REMARK  131  A    between atoms: _336  and  _337
REMARK  132  A    between atoms: _336  and  _339
REMARK  133  A    between atoms: _339  and  _340
REMARK  134  A    between atoms: _340  and  _341
REMARK  135  A    between atoms: _341  and  _342
REMARK  136  A    between atoms: _351  and  _353
REMARK  137  A    between atoms: _353  and  _354
REMARK  138  A    between atoms: _356  and  _358
REMARK  139  A    between atoms: _358  and  _359
REMARK  140  A    between atoms: _361  and  _363
REMARK  141  A    between atoms: _363  and  _364
REMARK  142  A    between atoms: _363  and  _366
REMARK  143  A    between atoms: _366  and  _367
REMARK  144  A    between atoms: _370  and  _372
REMARK  145  A    between atoms: _372  and  _373
REMARK  146  A    between atoms: _372  and  _375
REMARK  147  A    between atoms: _375  and  _376
REMARK  148  A    between atoms: _381  and  _382
REMARK  149  A    between atoms: _384  and  _386
REMARK  150  A    between atoms: _386  and  _387
REMARK  151  A    between atoms: _386  and  _389
REMARK  152  A    between atoms: _389  and  _390
REMARK  153  A    between atoms: _393  and  _395
REMARK  154  A    between atoms: _395  and  _396
REMARK  155  A    between atoms: _398  and  _400
REMARK  156  A    between atoms: _400  and  _401
REMARK  157  A    between atoms: _400  and  _403
REMARK  158  A    between atoms: _403  and  _404
REMARK  159  A    between atoms: _408  and  _409
REMARK  160  A    between atoms: _414  and  _416
REMARK  161  A    between atoms: _416  and  _417
REMARK  162  A    between atoms: _416  and  _419
REMARK  163  A    between atoms: _419  and  _420
REMARK                            x       y       z     vdW  Elec       q    Type
REMARK                         _______ _______ _______ _____ _____    ______ ____
ROOT
ATOM      1  O   HOH     1     -27.510  34.734 -20.380  0.00  0.00    +0.000 OA
ENDROOT
TORSDOF 0
REMARK  Name = ../refined-set-2016/3k5x/3k5x_pocket.pdb
REMARK  163 active torsions:
REMARK  status: ('A' for Active; 'I' for Inactive)
REMARK    1  A    between atoms: _1  and  _3
REMARK    2  A    between atoms: _14  and  _17
REMARK    3  A    between atoms: _17  and  _18
REMARK    4  A    between atoms: _25  and  _26
REMARK    5  A    between atoms: _32  and  _34
REMARK    6  A    between atoms: _34  and  _35
REMARK    7  A    between atoms: _34  and  _37
REMARK    8  A    between atoms: _37  and  _38
REMARK    9  A    between atoms: _48  and  _50
REMARK   10  A    between atoms: _50  and  _51
REMARK   11  A    between atoms: _54  and  _56
REMARK   12  A    between atoms: _56  and  _57
REMARK   13  A    between atoms: _56  and  _59
REMARK   14  A    between atoms: _59  and  _60
REMARK   15  A    between atoms: _62  and  _64
REMARK   16  A    between atoms: _64  and  _65
REMARK   17  A    between atoms: _64  and  _67
REMARK   18  A    between atoms: _70  and  _72
REMARK   19  A    between atoms: _72  and  _73
REMARK   20  A    between atoms: _72  and  _75
REMARK   21  A    between atoms: _75  and  _76
REMARK   22  A    between atoms: _81  and  _82
REMARK   23  A    between atoms: _84  and  _86
REMARK   24  A    between atoms: _86  and  _87
REMARK   25  A    between atoms: _86  and  _89
REMARK   26  A    between atoms: _92  and  _94
REMARK   27  A    between atoms: _94  and  _95
REMARK   28  A    between atoms: _94  and  _97
REMARK   29  A    between atoms: _97  and  _98
REMARK   30  A    between atoms: _98  and  _99
REMARK   31  A    between atoms: _99  and  _100
REMARK   32  A    between atoms: _109  and  _111
REMARK   33  A    between atoms: _111  and  _112
REMARK   34  A    between atoms: _111  and  _114
REMARK   35  A    between atoms: _114  and  _115
REMARK   36  A    between atoms: _117  and  _119
REMARK   37  A    between atoms: _119  and  _120
REMARK   38  A    between atoms: _119  and  _122
REMARK   39  A    between atoms: _122  and  _123
REMARK   40  A    between atoms: _123  and  _124
REMARK   41  A    between atoms: _129  and  _131
REMARK   42  A    between atoms: _131  and  _132
REMARK   43  A    between atoms: _131  and  _134
REMARK   44  A    between atoms: _134  and  _135
REMARK   45  A    between atoms: _135  and  _136
REMARK   46  A    between atoms: _136  and  _137
REMARK   47  A    between atoms: _136  and  _138
REMARK   48  A    between atoms: _137  and  ZN_426
REMARK   49  A    between atoms: _138  and  ZN_427
REMARK   50  A    between atoms: _139  and  _141
REMARK   51  A    between atoms: _141  and  _142
REMARK   52  A    between atoms: _141  and  _144
REMARK   53  A    between atoms: _144  and  _145
REMARK   54  A    between atoms: _150  and  _151
REMARK   55  A    between atoms: _153  and  _155
REMARK   56  A    between atoms: _155  and  _156
REMARK   57  A    between atoms: _155  and  _158
REMARK   58  A    between atoms: _158  and  _159
REMARK   59  A    between atoms: _162  and  _164
REMARK   60  A    between atoms: _164  and  _165
REMARK   61  A    between atoms: _164  and  _167
REMARK   62  A    between atoms: _167  and  _168
REMARK   63  A    between atoms: _171  and  _173
REMARK   64  A    between atoms: _173  and  _174
REMARK   65  A    between atoms: _173  and  _176
REMARK   66  A    between atoms: _176  and  _177
REMARK   67  A    between atoms: _182  and  _184
REMARK   68  A    between atoms: _184  and  _185
REMARK   69  A    between atoms: _184  and  _187
REMARK   70  A    between atoms: _187  and  _188
REMARK   71  A    between atoms: _193  and  _195
REMARK   72  A    between atoms: _195  and  _196
REMARK   73  A    between atoms: _195  and  _198
REMARK   74  A    between atoms: _198  and  _199
REMARK   75  A    between atoms: _202  and  _204
REMARK   76  A    between atoms: _204  and  _205
REMARK   77  A    between atoms: _204  and  _207
REMARK   78  A    between atoms: _207  and  _208
REMARK   79  A    between atoms: _210  and  _212
REMARK   80  A    between atoms: _212  and  _213
REMARK   81  A    between atoms: _212  and  _215
REMARK   82  A    between atoms: _215  and  _216
REMARK   83  A    between atoms: _220  and  ZN_427
REMARK   84  A    between atoms: _221  and  _223
REMARK   85  A    between atoms: _223  and  _224
REMARK   86  A    between atoms: _223  and  _226
REMARK   87  A    between atoms: _226  and  _227
REMARK   88  A    between atoms: _229  and  _231
REMARK   89  A    between atoms: _231  and  _232
REMARK   90  A    between atoms: _231  and  _234
REMARK   91  A    between atoms: _234  and  _235
REMARK   92  A    between atoms: _239  and  ZN_427
REMARK   93  A    between atoms: _240  and  _242
REMARK   94  A    between atoms: _242  and  _243
REMARK   95  A    between atoms: _242  and  _245
REMARK   96  A    between atoms: _245  and  _246
REMARK   97  A    between atoms: _248  and  _250
REMARK   98  A    between atoms: _250  and  _251
REMARK   99  A    between atoms: _250  and  _253
REMARK  100  A    between atoms: _253  and  _254
REMARK  101  A    between atoms: _259  and  _261
REMARK  102  A    between atoms: _261  and  _262
REMARK  103  A    between atoms: _261  and  _264
REMARK  104  A    between atoms: _264  and  _265
REMARK  105  A    between atoms: _265  and  _266
REMARK  106  A    between atoms: _266  and  _267
REMARK  107  A    between atoms: _276  and  _278
REMARK  108  A    between atoms: _278  and  _279
REMARK  109  A    between atoms: _278  and  _281
REMARK  110  A    between atoms: _281  and  _282
REMARK  111  A    between atoms: _285  and  _287
REMARK  112  A    between atoms: _287  and  _288
REMARK  113  A    between atoms: _287  and  _290
REMARK  114  A    between atoms: _294  and  _295
REMARK  115  A    between atoms: _300  and  _302
REMARK  116  A    between atoms: _302  and  _303
REMARK  117  A    between atoms: _302  and  _305
REMARK  118  A    between atoms: _305  and  _306
REMARK  119  A    between atoms: _306  and  _307
REMARK  120  A    between atoms: _307  and  _308
REMARK  121  A    between atoms: _308  and  _309
REMARK  122  A    between atoms: _313  and  _315
REMARK  123  A    between atoms: _315  and  _316
REMARK  124  A    between atoms: _315  and  _318
REMARK  125  A    between atoms: _318  and  _319
REMARK  126  A    between atoms: _325  and  _327
REMARK  127  A    between atoms: _327  and  _328
REMARK  128  A    between atoms: _327  and  _330
REMARK  129  A    between atoms: _330  and  _331
REMARK  130  A    between atoms: _334  and  _336
REMARK  131  A    between atoms: _336  and  _337
REMARK  132  A    between atoms: _336  and  _339
REMARK  133  A    between atoms: _339  and  _340
REMARK  134  A    between atoms: _340  and  _341
REMARK  135  A    between atoms: _341  and  _342
REMARK  136  A    between atoms: _351  and  _353
REMARK  137  A    between atoms: _353  and  _354
REMARK  138  A    between atoms: _356  and  _358
REMARK  139  A    between atoms: _358  and  _359
REMARK  140  A    between atoms: _361  and  _363
REMARK  141  A    between atoms: _363  and  _364
REMARK  142  A    between atoms: _363  and  _366
REMARK  143  A    between atoms: _366  and  _367
REMARK  144  A    between atoms: _370  and  _372
REMARK  145  A    between atoms: _372  and  _373
REMARK  146  A    between atoms: _372  and  _375
REMARK  147  A    between atoms: _375  and  _376
REMARK  148  A    between atoms: _381  and  _382
REMARK  149  A    between atoms: _384  and  _386
REMARK  150  A    between atoms: _386  and  _387
REMARK  151  A    between atoms: _386  and  _389
REMARK  152  A    between atoms: _389  and  _390
REMARK  153  A    between atoms: _393  and  _395
REMARK  154  A    between atoms: _395  and  _396
REMARK  155  A    between atoms: _398  and  _400
REMARK  156  A    between atoms: _400  and  _401
REMARK  157  A    between atoms: _400  and  _403
REMARK  158  A    between atoms: _403  and  _404
REMARK  159  A    between atoms: _408  and  _409
REMARK  160  A    between atoms: _414  and  _416
REMARK  161  A    between atoms: _416  and  _417
REMARK  162  A    between atoms: _416  and  _419
REMARK  163  A    between atoms: _419  and  _420
REMARK                            x       y       z     vdW  Elec       q    Type
REMARK                         _______ _______ _______ _____ _____    ______ ____
ROOT
ATOM      1  O   HOH     1     -31.726  31.050 -13.910  0.00  0.00    +0.000 OA
ENDROOT
TORSDOF 0
REMARK  Name = ../refined-set-2016/3k5x/3k5x_pocket.pdb
REMARK  163 active torsions:
REMARK  status: ('A' for Active; 'I' for Inactive)
REMARK    1  A    between atoms: _1  and  _3
REMARK    2  A    between atoms: _14  and  _17
REMARK    3  A    between atoms: _17  and  _18
REMARK    4  A    between atoms: _25  and  _26
REMARK    5  A    between atoms: _32  and  _34
REMARK    6  A    between atoms: _34  and  _35
REMARK    7  A    between atoms: _34  and  _37
REMARK    8  A    between atoms: _37  and  _38
REMARK    9  A    between atoms: _48  and  _50
REMARK   10  A    between atoms: _50  and  _51
REMARK   11  A    between atoms: _54  and  _56
REMARK   12  A    between atoms: _56  and  _57
REMARK   13  A    between atoms: _56  and  _59
REMARK   14  A    between atoms: _59  and  _60
REMARK   15  A    between atoms: _62  and  _64
REMARK   16  A    between atoms: _64  and  _65
REMARK   17  A    between atoms: _64  and  _67
REMARK   18  A    between atoms: _70  and  _72
REMARK   19  A    between atoms: _72  and  _73
REMARK   20  A    between atoms: _72  and  _75
REMARK   21  A    between atoms: _75  and  _76
REMARK   22  A    between atoms: _81  and  _82
REMARK   23  A    between atoms: _84  and  _86
REMARK   24  A    between atoms: _86  and  _87
REMARK   25  A    between atoms: _86  and  _89
REMARK   26  A    between atoms: _92  and  _94
REMARK   27  A    between atoms: _94  and  _95
REMARK   28  A    between atoms: _94  and  _97
REMARK   29  A    between atoms: _97  and  _98
REMARK   30  A    between atoms: _98  and  _99
REMARK   31  A    between atoms: _99  and  _100
REMARK   32  A    between atoms: _109  and  _111
REMARK   33  A    between atoms: _111  and  _112
REMARK   34  A    between atoms: _111  and  _114
REMARK   35  A    between atoms: _114  and  _115
REMARK   36  A    between atoms: _117  and  _119
REMARK   37  A    between atoms: _119  and  _120
REMARK   38  A    between atoms: _119  and  _122
REMARK   39  A    between atoms: _122  and  _123
REMARK   40  A    between atoms: _123  and  _124
REMARK   41  A    between atoms: _129  and  _131
REMARK   42  A    between atoms: _131  and  _132
REMARK   43  A    between atoms: _131  and  _134
REMARK   44  A    between atoms: _134  and  _135
REMARK   45  A    between atoms: _135  and  _136
REMARK   46  A    between atoms: _136  and  _137
REMARK   47  A    between atoms: _136  and  _138
REMARK   48  A    between atoms: _137  and  ZN_426
REMARK   49  A    between atoms: _138  and  ZN_427
REMARK   50  A    between atoms: _139  and  _141
REMARK   51  A    between atoms: _141  and  _142
REMARK   52  A    between atoms: _141  and  _144
REMARK   53  A    between atoms: _144  and  _145
REMARK   54  A    between atoms: _150  and  _151
REMARK   55  A    between atoms: _153  and  _155
REMARK   56  A    between atoms: _155  and  _156
REMARK   57  A    between atoms: _155  and  _158
REMARK   58  A    between atoms: _158  and  _159
REMARK   59  A    between atoms: _162  and  _164
REMARK   60  A    between atoms: _164  and  _165
REMARK   61  A    between atoms: _164  and  _167
REMARK   62  A    between atoms: _167  and  _168
REMARK   63  A    between atoms: _171  and  _173
REMARK   64  A    between atoms: _173  and  _174
REMARK   65  A    between atoms: _173  and  _176
REMARK   66  A    between atoms: _176  and  _177
REMARK   67  A    between atoms: _182  and  _184
REMARK   68  A    between atoms: _184  and  _185
REMARK   69  A    between atoms: _184  and  _187
REMARK   70  A    between atoms: _187  and  _188
REMARK   71  A    between atoms: _193  and  _195
REMARK   72  A    between atoms: _195  and  _196
REMARK   73  A    between atoms: _195  and  _198
REMARK   74  A    between atoms: _198  and  _199
REMARK   75  A    between atoms: _202  and  _204
REMARK   76  A    between atoms: _204  and  _205
REMARK   77  A    between atoms: _204  and  _207
REMARK   78  A    between atoms: _207  and  _208
REMARK   79  A    between atoms: _210  and  _212
REMARK   80  A    between atoms: _212  and  _213
REMARK   81  A    between atoms: _212  and  _215
REMARK   82  A    between atoms: _215  and  _216
REMARK   83  A    between atoms: _220  and  ZN_427
REMARK   84  A    between atoms: _221  and  _223
REMARK   85  A    between atoms: _223  and  _224
REMARK   86  A    between atoms: _223  and  _226
REMARK   87  A    between atoms: _226  and  _227
REMARK   88  A    between atoms: _229  and  _231
REMARK   89  A    between atoms: _231  and  _232
REMARK   90  A    between atoms: _231  and  _234
REMARK   91  A    between atoms: _234  and  _235
REMARK   92  A    between atoms: _239  and  ZN_427
REMARK   93  A    between atoms: _240  and  _242
REMARK   94  A    between atoms: _242  and  _243
REMARK   95  A    between atoms: _242  and  _245
REMARK   96  A    between atoms: _245  and  _246
REMARK   97  A    between atoms: _248  and  _250
REMARK   98  A    between atoms: _250  and  _251
REMARK   99  A    between atoms: _250  and  _253
REMARK  100  A    between atoms: _253  and  _254
REMARK  101  A    between atoms: _259  and  _261
REMARK  102  A    between atoms: _261  and  _262
REMARK  103  A    between atoms: _261  and  _264
REMARK  104  A    between atoms: _264  and  _265
REMARK  105  A    between atoms: _265  and  _266
REMARK  106  A    between atoms: _266  and  _267
REMARK  107  A    between atoms: _276  and  _278
REMARK  108  A    between atoms: _278  and  _279
REMARK  109  A    between atoms: _278  and  _281
REMARK  110  A    between atoms: _281  and  _282
REMARK  111  A    between atoms: _285  and  _287
REMARK  112  A    between atoms: _287  and  _288
REMARK  113  A    between atoms: _287  and  _290
REMARK  114  A    between atoms: _294  and  _295
REMARK  115  A    between atoms: _300  and  _302
REMARK  116  A    between atoms: _302  and  _303
REMARK  117  A    between atoms: _302  and  _305
REMARK  118  A    between atoms: _305  and  _306
REMARK  119  A    between atoms: _306  and  _307
REMARK  120  A    between atoms: _307  and  _308
REMARK  121  A    between atoms: _308  and  _309
REMARK  122  A    between atoms: _313  and  _315
REMARK  123  A    between atoms: _315  and  _316
REMARK  124  A    between atoms: _315  and  _318
REMARK  125  A    between atoms: _318  and  _319
REMARK  126  A    between atoms: _325  and  _327
REMARK  127  A    between atoms: _327  and  _328
REMARK  128  A    between atoms: _327  and  _330
REMARK  129  A    between atoms: _330  and  _331
REMARK  130  A    between atoms: _334  and  _336
REMARK  131  A    between atoms: _336  and  _337
REMARK  132  A    between atoms: _336  and  _339
REMARK  133  A    between atoms: _339  and  _340
REMARK  134  A    between atoms: _340  and  _341
REMARK  135  A    between atoms: _341  and  _342
REMARK  136  A    between atoms: _351  and  _353
REMARK  137  A    between atoms: _353  and  _354
REMARK  138  A    between atoms: _356  and  _358
REMARK  139  A    between atoms: _358  and  _359
REMARK  140  A    between atoms: _361  and  _363
REMARK  141  A    between atoms: _363  and  _364
REMARK  142  A    between atoms: _363  and  _366
REMARK  143  A    between atoms: _366  and  _367
REMARK  144  A    between atoms: _370  and  _372
REMARK  145  A    between atoms: _372  and  _373
REMARK  146  A    between atoms: _372  and  _375
REMARK  147  A    between atoms: _375  and  _376
REMARK  148  A    between atoms: _381  and  _382
REMARK  149  A    between atoms: _384  and  _386
REMARK  150  A    between atoms: _386  and  _387
REMARK  151  A    between atoms: _386  and  _389
REMARK  152  A    between atoms: _389  and  _390
REMARK  153  A    between atoms: _393  and  _395
REMARK  154  A    between atoms: _395  and  _396
REMARK  155  A    between atoms: _398  and  _400
REMARK  156  A    between atoms: _400  and  _401
REMARK  157  A    between atoms: _400  and  _403
REMARK  158  A    between atoms: _403  and  _404
REMARK  159  A    between atoms: _408  and  _409
REMARK  160  A    between atoms: _414  and  _416
REMARK  161  A    between atoms: _416  and  _417
REMARK  162  A    between atoms: _416  and  _419
REMARK  163  A    between atoms: _419  and  _420
REMARK                            x       y       z     vdW  Elec       q    Type
REMARK                         _______ _______ _______ _____ _____    ______ ____
ROOT
ATOM      1  O   HOH     1     -30.834  36.392 -17.094  0.00  0.00    +0.000 OA
ENDROOT
TORSDOF 0
REMARK  Name = ../refined-set-2016/3k5x/3k5x_pocket.pdb
REMARK  163 active torsions:
REMARK  status: ('A' for Active; 'I' for Inactive)
REMARK    1  A    between atoms: _1  and  _3
REMARK    2  A    between atoms: _14  and  _17
REMARK    3  A    between atoms: _17  and  _18
REMARK    4  A    between atoms: _25  and  _26
REMARK    5  A    between atoms: _32  and  _34
REMARK    6  A    between atoms: _34  and  _35
REMARK    7  A    between atoms: _34  and  _37
REMARK    8  A    between atoms: _37  and  _38
REMARK    9  A    between atoms: _48  and  _50
REMARK   10  A    between atoms: _50  and  _51
REMARK   11  A    between atoms: _54  and  _56
REMARK   12  A    between atoms: _56  and  _57
REMARK   13  A    between atoms: _56  and  _59
REMARK   14  A    between atoms: _59  and  _60
REMARK   15  A    between atoms: _62  and  _64
REMARK   16  A    between atoms: _64  and  _65
REMARK   17  A    between atoms: _64  and  _67
REMARK   18  A    between atoms: _70  and  _72
REMARK   19  A    between atoms: _72  and  _73
REMARK   20  A    between atoms: _72  and  _75
REMARK   21  A    between atoms: _75  and  _76
REMARK   22  A    between atoms: _81  and  _82
REMARK   23  A    between atoms: _84  and  _86
REMARK   24  A    between atoms: _86  and  _87
REMARK   25  A    between atoms: _86  and  _89
REMARK   26  A    between atoms: _92  and  _94
REMARK   27  A    between atoms: _94  and  _95
REMARK   28  A    between atoms: _94  and  _97
REMARK   29  A    between atoms: _97  and  _98
REMARK   30  A    between atoms: _98  and  _99
REMARK   31  A    between atoms: _99  and  _100
REMARK   32  A    between atoms: _109  and  _111
REMARK   33  A    between atoms: _111  and  _112
REMARK   34  A    between atoms: _111  and  _114
REMARK   35  A    between atoms: _114  and  _115
REMARK   36  A    between atoms: _117  and  _119
REMARK   37  A    between atoms: _119  and  _120
REMARK   38  A    between atoms: _119  and  _122
REMARK   39  A    between atoms: _122  and  _123
REMARK   40  A    between atoms: _123  and  _124
REMARK   41  A    between atoms: _129  and  _131
REMARK   42  A    between atoms: _131  and  _132
REMARK   43  A    between atoms: _131  and  _134
REMARK   44  A    between atoms: _134  and  _135
REMARK   45  A    between atoms: _135  and  _136
REMARK   46  A    between atoms: _136  and  _137
REMARK   47  A    between atoms: _136  and  _138
REMARK   48  A    between atoms: _137  and  ZN_426
REMARK   49  A    between atoms: _138  and  ZN_427
REMARK   50  A    between atoms: _139  and  _141
REMARK   51  A    between atoms: _141  and  _142
REMARK   52  A    between atoms: _141  and  _144
REMARK   53  A    between atoms: _144  and  _145
REMARK   54  A    between atoms: _150  and  _151
REMARK   55  A    between atoms: _153  and  _155
REMARK   56  A    between atoms: _155  and  _156
REMARK   57  A    between atoms: _155  and  _158
REMARK   58  A    between atoms: _158  and  _159
REMARK   59  A    between atoms: _162  and  _164
REMARK   60  A    between atoms: _164  and  _165
REMARK   61  A    between atoms: _164  and  _167
REMARK   62  A    between atoms: _167  and  _168
REMARK   63  A    between atoms: _171  and  _173
REMARK   64  A    between atoms: _173  and  _174
REMARK   65  A    between atoms: _173  and  _176
REMARK   66  A    between atoms: _176  and  _177
REMARK   67  A    between atoms: _182  and  _184
REMARK   68  A    between atoms: _184  and  _185
REMARK   69  A    between atoms: _184  and  _187
REMARK   70  A    between atoms: _187  and  _188
REMARK   71  A    between atoms: _193  and  _195
REMARK   72  A    between atoms: _195  and  _196
REMARK   73  A    between atoms: _195  and  _198
REMARK   74  A    between atoms: _198  and  _199
REMARK   75  A    between atoms: _202  and  _204
REMARK   76  A    between atoms: _204  and  _205
REMARK   77  A    between atoms: _204  and  _207
REMARK   78  A    between atoms: _207  and  _208
REMARK   79  A    between atoms: _210  and  _212
REMARK   80  A    between atoms: _212  and  _213
REMARK   81  A    between atoms: _212  and  _215
REMARK   82  A    between atoms: _215  and  _216
REMARK   83  A    between atoms: _220  and  ZN_427
REMARK   84  A    between atoms: _221  and  _223
REMARK   85  A    between atoms: _223  and  _224
REMARK   86  A    between atoms: _223  and  _226
REMARK   87  A    between atoms: _226  and  _227
REMARK   88  A    between atoms: _229  and  _231
REMARK   89  A    between atoms: _231  and  _232
REMARK   90  A    between atoms: _231  and  _234
REMARK   91  A    between atoms: _234  and  _235
REMARK   92  A    between atoms: _239  and  ZN_427
REMARK   93  A    between atoms: _240  and  _242
REMARK   94  A    between atoms: _242  and  _243
REMARK   95  A    between atoms: _242  and  _245
REMARK   96  A    between atoms: _245  and  _246
REMARK   97  A    between atoms: _248  and  _250
REMARK   98  A    between atoms: _250  and  _251
REMARK   99  A    between atoms: _250  and  _253
REMARK  100  A    between atoms: _253  and  _254
REMARK  101  A    between atoms: _259  and  _261
REMARK  102  A    between atoms: _261  and  _262
REMARK  103  A    between atoms: _261  and  _264
REMARK  104  A    between atoms: _264  and  _265
REMARK  105  A    between atoms: _265  and  _266
REMARK  106  A    between atoms: _266  and  _267
REMARK  107  A    between atoms: _276  and  _278
REMARK  108  A    between atoms: _278  and  _279
REMARK  109  A    between atoms: _278  and  _281
REMARK  110  A    between atoms: _281  and  _282
REMARK  111  A    between atoms: _285  and  _287
REMARK  112  A    between atoms: _287  and  _288
REMARK  113  A    between atoms: _287  and  _290
REMARK  114  A    between atoms: _294  and  _295
REMARK  115  A    between atoms: _300  and  _302
REMARK  116  A    between atoms: _302  and  _303
REMARK  117  A    between atoms: _302  and  _305
REMARK  118  A    between atoms: _305  and  _306
REMARK  119  A    between atoms: _306  and  _307
REMARK  120  A    between atoms: _307  and  _308
REMARK  121  A    between atoms: _308  and  _309
REMARK  122  A    between atoms: _313  and  _315
REMARK  123  A    between atoms: _315  and  _316
REMARK  124  A    between atoms: _315  and  _318
REMARK  125  A    between atoms: _318  and  _319
REMARK  126  A    between atoms: _325  and  _327
REMARK  127  A    between atoms: _327  and  _328
REMARK  128  A    between atoms: _327  and  _330
REMARK  129  A    between atoms: _330  and  _331
REMARK  130  A    between atoms: _334  and  _336
REMARK  131  A    between atoms: _336  and  _337
REMARK  132  A    between atoms: _336  and  _339
REMARK  133  A    between atoms: _339  and  _340
REMARK  134  A    between atoms: _340  and  _341
REMARK  135  A    between atoms: _341  and  _342
REMARK  136  A    between atoms: _351  and  _353
REMARK  137  A    between atoms: _353  and  _354
REMARK  138  A    between atoms: _356  and  _358
REMARK  139  A    between atoms: _358  and  _359
REMARK  140  A    between atoms: _361  and  _363
REMARK  141  A    between atoms: _363  and  _364
REMARK  142  A    between atoms: _363  and  _366
REMARK  143  A    between atoms: _366  and  _367
REMARK  144  A    between atoms: _370  and  _372
REMARK  145  A    between atoms: _372  and  _373
REMARK  146  A    between atoms: _372  and  _375
REMARK  147  A    between atoms: _375  and  _376
REMARK  148  A    between atoms: _381  and  _382
REMARK  149  A    between atoms: _384  and  _386
REMARK  150  A    between atoms: _386  and  _387
REMARK  151  A    between atoms: _386  and  _389
REMARK  152  A    between atoms: _389  and  _390
REMARK  153  A    between atoms: _393  and  _395
REMARK  154  A    between atoms: _395  and  _396
REMARK  155  A    between atoms: _398  and  _400
REMARK  156  A    between atoms: _400  and  _401
REMARK  157  A    between atoms: _400  and  _403
REMARK  158  A    between atoms: _403  and  _404
REMARK  159  A    between atoms: _408  and  _409
REMARK  160  A    between atoms: _414  and  _416
REMARK  161  A    between atoms: _416  and  _417
REMARK  162  A    between atoms: _416  and  _419
REMARK  163  A    between atoms: _419  and  _420
REMARK                            x       y       z     vdW  Elec       q    Type
REMARK                         _______ _______ _______ _____ _____    ______ ____
ROOT
ATOM      1  O   HOH     1     -28.122  33.024 -14.693  0.00  0.00    +0.000 OA
ENDROOT
TORSDOF 0
REMARK  Name = ../refined-set-2016/3k5x/3k5x_pocket.pdb
REMARK  163 active torsions:
REMARK  status: ('A' for Active; 'I' for Inactive)
REMARK    1  A    between atoms: _1  and  _3
REMARK    2  A    between atoms: _14  and  _17
REMARK    3  A    between atoms: _17  and  _18
REMARK    4  A    between atoms: _25  and  _26
REMARK    5  A    between atoms: _32  and  _34
REMARK    6  A    between atoms: _34  and  _35
REMARK    7  A    between atoms: _34  and  _37
REMARK    8  A    between atoms: _37  and  _38
REMARK    9  A    between atoms: _48  and  _50
REMARK   10  A    between atoms: _50  and  _51
REMARK   11  A    between atoms: _54  and  _56
REMARK   12  A    between atoms: _56  and  _57
REMARK   13  A    between atoms: _56  and  _59
REMARK   14  A    between atoms: _59  and  _60
REMARK   15  A    between atoms: _62  and  _64
REMARK   16  A    between atoms: _64  and  _65
REMARK   17  A    between atoms: _64  and  _67
REMARK   18  A    between atoms: _70  and  _72
REMARK   19  A    between atoms: _72  and  _73
REMARK   20  A    between atoms: _72  and  _75
REMARK   21  A    between atoms: _75  and  _76
REMARK   22  A    between atoms: _81  and  _82
REMARK   23  A    between atoms: _84  and  _86
REMARK   24  A    between atoms: _86  and  _87
REMARK   25  A    between atoms: _86  and  _89
REMARK   26  A    between atoms: _92  and  _94
REMARK   27  A    between atoms: _94  and  _95
REMARK   28  A    between atoms: _94  and  _97
REMARK   29  A    between atoms: _97  and  _98
REMARK   30  A    between atoms: _98  and  _99
REMARK   31  A    between atoms: _99  and  _100
REMARK   32  A    between atoms: _109  and  _111
REMARK   33  A    between atoms: _111  and  _112
REMARK   34  A    between atoms: _111  and  _114
REMARK   35  A    between atoms: _114  and  _115
REMARK   36  A    between atoms: _117  and  _119
REMARK   37  A    between atoms: _119  and  _120
REMARK   38  A    between atoms: _119  and  _122
REMARK   39  A    between atoms: _122  and  _123
REMARK   40  A    between atoms: _123  and  _124
REMARK   41  A    between atoms: _129  and  _131
REMARK   42  A    between atoms: _131  and  _132
REMARK   43  A    between atoms: _131  and  _134
REMARK   44  A    between atoms: _134  and  _135
REMARK   45  A    between atoms: _135  and  _136
REMARK   46  A    between atoms: _136  and  _137
REMARK   47  A    between atoms: _136  and  _138
REMARK   48  A    between atoms: _137  and  ZN_426
REMARK   49  A    between atoms: _138  and  ZN_427
REMARK   50  A    between atoms: _139  and  _141
REMARK   51  A    between atoms: _141  and  _142
REMARK   52  A    between atoms: _141  and  _144
REMARK   53  A    between atoms: _144  and  _145
REMARK   54  A    between atoms: _150  and  _151
REMARK   55  A    between atoms: _153  and  _155
REMARK   56  A    between atoms: _155  and  _156
REMARK   57  A    between atoms: _155  and  _158
REMARK   58  A    between atoms: _158  and  _159
REMARK   59  A    between atoms: _162  and  _164
REMARK   60  A    between atoms: _164  and  _165
REMARK   61  A    between atoms: _164  and  _167
REMARK   62  A    between atoms: _167  and  _168
REMARK   63  A    between atoms: _171  and  _173
REMARK   64  A    between atoms: _173  and  _174
REMARK   65  A    between atoms: _173  and  _176
REMARK   66  A    between atoms: _176  and  _177
REMARK   67  A    between atoms: _182  and  _184
REMARK   68  A    between atoms: _184  and  _185
REMARK   69  A    between atoms: _184  and  _187
REMARK   70  A    between atoms: _187  and  _188
REMARK   71  A    between atoms: _193  and  _195
REMARK   72  A    between atoms: _195  and  _196
REMARK   73  A    between atoms: _195  and  _198
REMARK   74  A    between atoms: _198  and  _199
REMARK   75  A    between atoms: _202  and  _204
REMARK   76  A    between atoms: _204  and  _205
REMARK   77  A    between atoms: _204  and  _207
REMARK   78  A    between atoms: _207  and  _208
REMARK   79  A    between atoms: _210  and  _212
REMARK   80  A    between atoms: _212  and  _213
REMARK   81  A    between atoms: _212  and  _215
REMARK   82  A    between atoms: _215  and  _216
REMARK   83  A    between atoms: _220  and  ZN_427
REMARK   84  A    between atoms: _221  and  _223
REMARK   85  A    between atoms: _223  and  _224
REMARK   86  A    between atoms: _223  and  _226
REMARK   87  A    between atoms: _226  and  _227
REMARK   88  A    between atoms: _229  and  _231
REMARK   89  A    between atoms: _231  and  _232
REMARK   90  A    between atoms: _231  and  _234
REMARK   91  A    between atoms: _234  and  _235
REMARK   92  A    between atoms: _239  and  ZN_427
REMARK   93  A    between atoms: _240  and  _242
REMARK   94  A    between atoms: _242  and  _243
REMARK   95  A    between atoms: _242  and  _245
REMARK   96  A    between atoms: _245  and  _246
REMARK   97  A    between atoms: _248  and  _250
REMARK   98  A    between atoms: _250  and  _251
REMARK   99  A    between atoms: _250  and  _253
REMARK  100  A    between atoms: _253  and  _254
REMARK  101  A    between atoms: _259  and  _261
REMARK  102  A    between atoms: _261  and  _262
REMARK  103  A    between atoms: _261  and  _264
REMARK  104  A    between atoms: _264  and  _265
REMARK  105  A    between atoms: _265  and  _266
REMARK  106  A    between atoms: _266  and  _267
REMARK  107  A    between atoms: _276  and  _278
REMARK  108  A    between atoms: _278  and  _279
REMARK  109  A    between atoms: _278  and  _281
REMARK  110  A    between atoms: _281  and  _282
REMARK  111  A    between atoms: _285  and  _287
REMARK  112  A    between atoms: _287  and  _288
REMARK  113  A    between atoms: _287  and  _290
REMARK  114  A    between atoms: _294  and  _295
REMARK  115  A    between atoms: _300  and  _302
REMARK  116  A    between atoms: _302  and  _303
REMARK  117  A    between atoms: _302  and  _305
REMARK  118  A    between atoms: _305  and  _306
REMARK  119  A    between atoms: _306  and  _307
REMARK  120  A    between atoms: _307  and  _308
REMARK  121  A    between atoms: _308  and  _309
REMARK  122  A    between atoms: _313  and  _315
REMARK  123  A    between atoms: _315  and  _316
REMARK  124  A    between atoms: _315  and  _318
REMARK  125  A    between atoms: _318  and  _319
REMARK  126  A    between atoms: _325  and  _327
REMARK  127  A    between atoms: _327  and  _328
REMARK  128  A    between atoms: _327  and  _330
REMARK  129  A    between atoms: _330  and  _331
REMARK  130  A    between atoms: _334  and  _336
REMARK  131  A    between atoms: _336  and  _337
REMARK  132  A    between atoms: _336  and  _339
REMARK  133  A    between atoms: _339  and  _340
REMARK  134  A    between atoms: _340  and  _341
REMARK  135  A    between atoms: _341  and  _342
REMARK  136  A    between atoms: _351  and  _353
REMARK  137  A    between atoms: _353  and  _354
REMARK  138  A    between atoms: _356  and  _358
REMARK  139  A    between atoms: _358  and  _359
REMARK  140  A    between atoms: _361  and  _363
REMARK  141  A    between atoms: _363  and  _364
REMARK  142  A    between atoms: _363  and  _366
REMARK  143  A    between atoms: _366  and  _367
REMARK  144  A    between atoms: _370  and  _372
REMARK  145  A    between atoms: _372  and  _373
REMARK  146  A    between atoms: _372  and  _375
REMARK  147  A    between atoms: _375  and  _376
REMARK  148  A    between atoms: _381  and  _382
REMARK  149  A    between atoms: _384  and  _386
REMARK  150  A    between atoms: _386  and  _387
REMARK  151  A    between atoms: _386  and  _389
REMARK  152  A    between atoms: _389  and  _390
REMARK  153  A    between atoms: _393  and  _395
REMARK  154  A    between atoms: _395  and  _396
REMARK  155  A    between atoms: _398  and  _400
REMARK  156  A    between atoms: _400  and  _401
REMARK  157  A    between atoms: _400  and  _403
REMARK  158  A    between atoms: _403  and  _404
REMARK  159  A    between atoms: _408  and  _409
REMARK  160  A    between atoms: _414  and  _416
REMARK  161  A    between atoms: _416  and  _417
REMARK  162  A    between atoms: _416  and  _419
REMARK  163  A    between atoms: _419  and  _420
REMARK                            x       y       z     vdW  Elec       q    Type
REMARK                         _______ _______ _______ _____ _____    ______ ____
ROOT
ATOM      1  O   HOH     1     -24.861  35.791 -16.533  0.00  0.00    +0.000 OA
ENDROOT
TORSDOF 0
REMARK  Name = ../refined-set-2016/3k5x/3k5x_pocket.pdb
REMARK  163 active torsions:
REMARK  status: ('A' for Active; 'I' for Inactive)
REMARK    1  A    between atoms: _1  and  _3
REMARK    2  A    between atoms: _14  and  _17
REMARK    3  A    between atoms: _17  and  _18
REMARK    4  A    between atoms: _25  and  _26
REMARK    5  A    between atoms: _32  and  _34
REMARK    6  A    between atoms: _34  and  _35
REMARK    7  A    between atoms: _34  and  _37
REMARK    8  A    between atoms: _37  and  _38
REMARK    9  A    between atoms: _48  and  _50
REMARK   10  A    between atoms: _50  and  _51
REMARK   11  A    between atoms: _54  and  _56
REMARK   12  A    between atoms: _56  and  _57
REMARK   13  A    between atoms: _56  and  _59
REMARK   14  A    between atoms: _59  and  _60
REMARK   15  A    between atoms: _62  and  _64
REMARK   16  A    between atoms: _64  and  _65
REMARK   17  A    between atoms: _64  and  _67
REMARK   18  A    between atoms: _70  and  _72
REMARK   19  A    between atoms: _72  and  _73
REMARK   20  A    between atoms: _72  and  _75
REMARK   21  A    between atoms: _75  and  _76
REMARK   22  A    between atoms: _81  and  _82
REMARK   23  A    between atoms: _84  and  _86
REMARK   24  A    between atoms: _86  and  _87
REMARK   25  A    between atoms: _86  and  _89
REMARK   26  A    between atoms: _92  and  _94
REMARK   27  A    between atoms: _94  and  _95
REMARK   28  A    between atoms: _94  and  _97
REMARK   29  A    between atoms: _97  and  _98
REMARK   30  A    between atoms: _98  and  _99
REMARK   31  A    between atoms: _99  and  _100
REMARK   32  A    between atoms: _109  and  _111
REMARK   33  A    between atoms: _111  and  _112
REMARK   34  A    between atoms: _111  and  _114
REMARK   35  A    between atoms: _114  and  _115
REMARK   36  A    between atoms: _117  and  _119
REMARK   37  A    between atoms: _119  and  _120
REMARK   38  A    between atoms: _119  and  _122
REMARK   39  A    between atoms: _122  and  _123
REMARK   40  A    between atoms: _123  and  _124
REMARK   41  A    between atoms: _129  and  _131
REMARK   42  A    between atoms: _131  and  _132
REMARK   43  A    between atoms: _131  and  _134
REMARK   44  A    between atoms: _134  and  _135
REMARK   45  A    between atoms: _135  and  _136
REMARK   46  A    between atoms: _136  and  _137
REMARK   47  A    between atoms: _136  and  _138
REMARK   48  A    between atoms: _137  and  ZN_426
REMARK   49  A    between atoms: _138  and  ZN_427
REMARK   50  A    between atoms: _139  and  _141
REMARK   51  A    between atoms: _141  and  _142
REMARK   52  A    between atoms: _141  and  _144
REMARK   53  A    between atoms: _144  and  _145
REMARK   54  A    between atoms: _150  and  _151
REMARK   55  A    between atoms: _153  and  _155
REMARK   56  A    between atoms: _155  and  _156
REMARK   57  A    between atoms: _155  and  _158
REMARK   58  A    between atoms: _158  and  _159
REMARK   59  A    between atoms: _162  and  _164
REMARK   60  A    between atoms: _164  and  _165
REMARK   61  A    between atoms: _164  and  _167
REMARK   62  A    between atoms: _167  and  _168
REMARK   63  A    between atoms: _171  and  _173
REMARK   64  A    between atoms: _173  and  _174
REMARK   65  A    between atoms: _173  and  _176
REMARK   66  A    between atoms: _176  and  _177
REMARK   67  A    between atoms: _182  and  _184
REMARK   68  A    between atoms: _184  and  _185
REMARK   69  A    between atoms: _184  and  _187
REMARK   70  A    between atoms: _187  and  _188
REMARK   71  A    between atoms: _193  and  _195
REMARK   72  A    between atoms: _195  and  _196
REMARK   73  A    between atoms: _195  and  _198
REMARK   74  A    between atoms: _198  and  _199
REMARK   75  A    between atoms: _202  and  _204
REMARK   76  A    between atoms: _204  and  _205
REMARK   77  A    between atoms: _204  and  _207
REMARK   78  A    between atoms: _207  and  _208
REMARK   79  A    between atoms: _210  and  _212
REMARK   80  A    between atoms: _212  and  _213
REMARK   81  A    between atoms: _212  and  _215
REMARK   82  A    between atoms: _215  and  _216
REMARK   83  A    between atoms: _220  and  ZN_427
REMARK   84  A    between atoms: _221  and  _223
REMARK   85  A    between atoms: _223  and  _224
REMARK   86  A    between atoms: _223  and  _226
REMARK   87  A    between atoms: _226  and  _227
REMARK   88  A    between atoms: _229  and  _231
REMARK   89  A    between atoms: _231  and  _232
REMARK   90  A    between atoms: _231  and  _234
REMARK   91  A    between atoms: _234  and  _235
REMARK   92  A    between atoms: _239  and  ZN_427
REMARK   93  A    between atoms: _240  and  _242
REMARK   94  A    between atoms: _242  and  _243
REMARK   95  A    between atoms: _242  and  _245
REMARK   96  A    between atoms: _245  and  _246
REMARK   97  A    between atoms: _248  and  _250
REMARK   98  A    between atoms: _250  and  _251
REMARK   99  A    between atoms: _250  and  _253
REMARK  100  A    between atoms: _253  and  _254
REMARK  101  A    between atoms: _259  and  _261
REMARK  102  A    between atoms: _261  and  _262
REMARK  103  A    between atoms: _261  and  _264
REMARK  104  A    between atoms: _264  and  _265
REMARK  105  A    between atoms: _265  and  _266
REMARK  106  A    between atoms: _266  and  _267
REMARK  107  A    between atoms: _276  and  _278
REMARK  108  A    between atoms: _278  and  _279
REMARK  109  A    between atoms: _278  and  _281
REMARK  110  A    between atoms: _281  and  _282
REMARK  111  A    between atoms: _285  and  _287
REMARK  112  A    between atoms: _287  and  _288
REMARK  113  A    between atoms: _287  and  _290
REMARK  114  A    between atoms: _294  and  _295
REMARK  115  A    between atoms: _300  and  _302
REMARK  116  A    between atoms: _302  and  _303
REMARK  117  A    between atoms: _302  and  _305
REMARK  118  A    between atoms: _305  and  _306
REMARK  119  A    between atoms: _306  and  _307
REMARK  120  A    between atoms: _307  and  _308
REMARK  121  A    between atoms: _308  and  _309
REMARK  122  A    between atoms: _313  and  _315
REMARK  123  A    between atoms: _315  and  _316
REMARK  124  A    between atoms: _315  and  _318
REMARK  125  A    between atoms: _318  and  _319
REMARK  126  A    between atoms: _325  and  _327
REMARK  127  A    between atoms: _327  and  _328
REMARK  128  A    between atoms: _327  and  _330
REMARK  129  A    between atoms: _330  and  _331
REMARK  130  A    between atoms: _334  and  _336
REMARK  131  A    between atoms: _336  and  _337
REMARK  132  A    between atoms: _336  and  _339
REMARK  133  A    between atoms: _339  and  _340
REMARK  134  A    between atoms: _340  and  _341
REMARK  135  A    between atoms: _341  and  _342
REMARK  136  A    between atoms: _351  and  _353
REMARK  137  A    between atoms: _353  and  _354
REMARK  138  A    between atoms: _356  and  _358
REMARK  139  A    between atoms: _358  and  _359
REMARK  140  A    between atoms: _361  and  _363
REMARK  141  A    between atoms: _363  and  _364
REMARK  142  A    between atoms: _363  and  _366
REMARK  143  A    between atoms: _366  and  _367
REMARK  144  A    between atoms: _370  and  _372
REMARK  145  A    between atoms: _372  and  _373
REMARK  146  A    between atoms: _372  and  _375
REMARK  147  A    between atoms: _375  and  _376
REMARK  148  A    between atoms: _381  and  _382
REMARK  149  A    between atoms: _384  and  _386
REMARK  150  A    between atoms: _386  and  _387
REMARK  151  A    between atoms: _386  and  _389
REMARK  152  A    between atoms: _389  and  _390
REMARK  153  A    between atoms: _393  and  _395
REMARK  154  A    between atoms: _395  and  _396
REMARK  155  A    between atoms: _398  and  _400
REMARK  156  A    between atoms: _400  and  _401
REMARK  157  A    between atoms: _400  and  _403
REMARK  158  A    between atoms: _403  and  _404
REMARK  159  A    between atoms: _408  and  _409
REMARK  160  A    between atoms: _414  and  _416
REMARK  161  A    between atoms: _416  and  _417
REMARK  162  A    between atoms: _416  and  _419
REMARK  163  A    between atoms: _419  and  _420
REMARK                            x       y       z     vdW  Elec       q    Type
REMARK                         _______ _______ _______ _____ _____    ______ ____
ROOT
ATOM      1  O   HOH     1     -26.138  30.564  -5.580  0.00  0.00    +0.000 OA
ENDROOT
TORSDOF 0
REMARK  Name = ../refined-set-2016/3k5x/3k5x_pocket.pdb
REMARK  163 active torsions:
REMARK  status: ('A' for Active; 'I' for Inactive)
REMARK    1  A    between atoms: _1  and  _3
REMARK    2  A    between atoms: _14  and  _17
REMARK    3  A    between atoms: _17  and  _18
REMARK    4  A    between atoms: _25  and  _26
REMARK    5  A    between atoms: _32  and  _34
REMARK    6  A    between atoms: _34  and  _35
REMARK    7  A    between atoms: _34  and  _37
REMARK    8  A    between atoms: _37  and  _38
REMARK    9  A    between atoms: _48  and  _50
REMARK   10  A    between atoms: _50  and  _51
REMARK   11  A    between atoms: _54  and  _56
REMARK   12  A    between atoms: _56  and  _57
REMARK   13  A    between atoms: _56  and  _59
REMARK   14  A    between atoms: _59  and  _60
REMARK   15  A    between atoms: _62  and  _64
REMARK   16  A    between atoms: _64  and  _65
REMARK   17  A    between atoms: _64  and  _67
REMARK   18  A    between atoms: _70  and  _72
REMARK   19  A    between atoms: _72  and  _73
REMARK   20  A    between atoms: _72  and  _75
REMARK   21  A    between atoms: _75  and  _76
REMARK   22  A    between atoms: _81  and  _82
REMARK   23  A    between atoms: _84  and  _86
REMARK   24  A    between atoms: _86  and  _87
REMARK   25  A    between atoms: _86  and  _89
REMARK   26  A    between atoms: _92  and  _94
REMARK   27  A    between atoms: _94  and  _95
REMARK   28  A    between atoms: _94  and  _97
REMARK   29  A    between atoms: _97  and  _98
REMARK   30  A    between atoms: _98  and  _99
REMARK   31  A    between atoms: _99  and  _100
REMARK   32  A    between atoms: _109  and  _111
REMARK   33  A    between atoms: _111  and  _112
REMARK   34  A    between atoms: _111  and  _114
REMARK   35  A    between atoms: _114  and  _115
REMARK   36  A    between atoms: _117  and  _119
REMARK   37  A    between atoms: _119  and  _120
REMARK   38  A    between atoms: _119  and  _122
REMARK   39  A    between atoms: _122  and  _123
REMARK   40  A    between atoms: _123  and  _124
REMARK   41  A    between atoms: _129  and  _131
REMARK   42  A    between atoms: _131  and  _132
REMARK   43  A    between atoms: _131  and  _134
REMARK   44  A    between atoms: _134  and  _135
REMARK   45  A    between atoms: _135  and  _136
REMARK   46  A    between atoms: _136  and  _137
REMARK   47  A    between atoms: _136  and  _138
REMARK   48  A    between atoms: _137  and  ZN_426
REMARK   49  A    between atoms: _138  and  ZN_427
REMARK   50  A    between atoms: _139  and  _141
REMARK   51  A    between atoms: _141  and  _142
REMARK   52  A    between atoms: _141  and  _144
REMARK   53  A    between atoms: _144  and  _145
REMARK   54  A    between atoms: _150  and  _151
REMARK   55  A    between atoms: _153  and  _155
REMARK   56  A    between atoms: _155  and  _156
REMARK   57  A    between atoms: _155  and  _158
REMARK   58  A    between atoms: _158  and  _159
REMARK   59  A    between atoms: _162  and  _164
REMARK   60  A    between atoms: _164  and  _165
REMARK   61  A    between atoms: _164  and  _167
REMARK   62  A    between atoms: _167  and  _168
REMARK   63  A    between atoms: _171  and  _173
REMARK   64  A    between atoms: _173  and  _174
REMARK   65  A    between atoms: _173  and  _176
REMARK   66  A    between atoms: _176  and  _177
REMARK   67  A    between atoms: _182  and  _184
REMARK   68  A    between atoms: _184  and  _185
REMARK   69  A    between atoms: _184  and  _187
REMARK   70  A    between atoms: _187  and  _188
REMARK   71  A    between atoms: _193  and  _195
REMARK   72  A    between atoms: _195  and  _196
REMARK   73  A    between atoms: _195  and  _198
REMARK   74  A    between atoms: _198  and  _199
REMARK   75  A    between atoms: _202  and  _204
REMARK   76  A    between atoms: _204  and  _205
REMARK   77  A    between atoms: _204  and  _207
REMARK   78  A    between atoms: _207  and  _208
REMARK   79  A    between atoms: _210  and  _212
REMARK   80  A    between atoms: _212  and  _213
REMARK   81  A    between atoms: _212  and  _215
REMARK   82  A    between atoms: _215  and  _216
REMARK   83  A    between atoms: _220  and  ZN_427
REMARK   84  A    between atoms: _221  and  _223
REMARK   85  A    between atoms: _223  and  _224
REMARK   86  A    between atoms: _223  and  _226
REMARK   87  A    between atoms: _226  and  _227
REMARK   88  A    between atoms: _229  and  _231
REMARK   89  A    between atoms: _231  and  _232
REMARK   90  A    between atoms: _231  and  _234
REMARK   91  A    between atoms: _234  and  _235
REMARK   92  A    between atoms: _239  and  ZN_427
REMARK   93  A    between atoms: _240  and  _242
REMARK   94  A    between atoms: _242  and  _243
REMARK   95  A    between atoms: _242  and  _245
REMARK   96  A    between atoms: _245  and  _246
REMARK   97  A    between atoms: _248  and  _250
REMARK   98  A    between atoms: _250  and  _251
REMARK   99  A    between atoms: _250  and  _253
REMARK  100  A    between atoms: _253  and  _254
REMARK  101  A    between atoms: _259  and  _261
REMARK  102  A    between atoms: _261  and  _262
REMARK  103  A    between atoms: _261  and  _264
REMARK  104  A    between atoms: _264  and  _265
REMARK  105  A    between atoms: _265  and  _266
REMARK  106  A    between atoms: _266  and  _267
REMARK  107  A    between atoms: _276  and  _278
REMARK  108  A    between atoms: _278  and  _279
REMARK  109  A    between atoms: _278  and  _281
REMARK  110  A    between atoms: _281  and  _282
REMARK  111  A    between atoms: _285  and  _287
REMARK  112  A    between atoms: _287  and  _288
REMARK  113  A    between atoms: _287  and  _290
REMARK  114  A    between atoms: _294  and  _295
REMARK  115  A    between atoms: _300  and  _302
REMARK  116  A    between atoms: _302  and  _303
REMARK  117  A    between atoms: _302  and  _305
REMARK  118  A    between atoms: _305  and  _306
REMARK  119  A    between atoms: _306  and  _307
REMARK  120  A    between atoms: _307  and  _308
REMARK  121  A    between atoms: _308  and  _309
REMARK  122  A    between atoms: _313  and  _315
REMARK  123  A    between atoms: _315  and  _316
REMARK  124  A    between atoms: _315  and  _318
REMARK  125  A    between atoms: _318  and  _319
REMARK  126  A    between atoms: _325  and  _327
REMARK  127  A    between atoms: _327  and  _328
REMARK  128  A    between atoms: _327  and  _330
REMARK  129  A    between atoms: _330  and  _331
REMARK  130  A    between atoms: _334  and  _336
REMARK  131  A    between atoms: _336  and  _337
REMARK  132  A    between atoms: _336  and  _339
REMARK  133  A    between atoms: _339  and  _340
REMARK  134  A    between atoms: _340  and  _341
REMARK  135  A    between atoms: _341  and  _342
REMARK  136  A    between atoms: _351  and  _353
REMARK  137  A    between atoms: _353  and  _354
REMARK  138  A    between atoms: _356  and  _358
REMARK  139  A    between atoms: _358  and  _359
REMARK  140  A    between atoms: _361  and  _363
REMARK  141  A    between atoms: _363  and  _364
REMARK  142  A    between atoms: _363  and  _366
REMARK  143  A    between atoms: _366  and  _367
REMARK  144  A    between atoms: _370  and  _372
REMARK  145  A    between atoms: _372  and  _373
REMARK  146  A    between atoms: _372  and  _375
REMARK  147  A    between atoms: _375  and  _376
REMARK  148  A    between atoms: _381  and  _382
REMARK  149  A    between atoms: _384  and  _386
REMARK  150  A    between atoms: _386  and  _387
REMARK  151  A    between atoms: _386  and  _389
REMARK  152  A    between atoms: _389  and  _390
REMARK  153  A    between atoms: _393  and  _395
REMARK  154  A    between atoms: _395  and  _396
REMARK  155  A    between atoms: _398  and  _400
REMARK  156  A    between atoms: _400  and  _401
REMARK  157  A    between atoms: _400  and  _403
REMARK  158  A    between atoms: _403  and  _404
REMARK  159  A    between atoms: _408  and  _409
REMARK  160  A    between atoms: _414  and  _416
REMARK  161  A    between atoms: _416  and  _417
REMARK  162  A    between atoms: _416  and  _419
REMARK  163  A    between atoms: _419  and  _420
REMARK                            x       y       z     vdW  Elec       q    Type
REMARK                         _______ _______ _______ _____ _____    ______ ____
ROOT
ATOM      1  O   HOH     1     -21.348  31.606 -15.663  0.00  0.00    +0.000 OA
ENDROOT
TORSDOF 0
REMARK  Name = ../refined-set-2016/3k5x/3k5x_pocket.pdb
REMARK  163 active torsions:
REMARK  status: ('A' for Active; 'I' for Inactive)
REMARK    1  A    between atoms: _1  and  _3
REMARK    2  A    between atoms: _14  and  _17
REMARK    3  A    between atoms: _17  and  _18
REMARK    4  A    between atoms: _25  and  _26
REMARK    5  A    between atoms: _32  and  _34
REMARK    6  A    between atoms: _34  and  _35
REMARK    7  A    between atoms: _34  and  _37
REMARK    8  A    between atoms: _37  and  _38
REMARK    9  A    between atoms: _48  and  _50
REMARK   10  A    between atoms: _50  and  _51
REMARK   11  A    between atoms: _54  and  _56
REMARK   12  A    between atoms: _56  and  _57
REMARK   13  A    between atoms: _56  and  _59
REMARK   14  A    between atoms: _59  and  _60
REMARK   15  A    between atoms: _62  and  _64
REMARK   16  A    between atoms: _64  and  _65
REMARK   17  A    between atoms: _64  and  _67
REMARK   18  A    between atoms: _70  and  _72
REMARK   19  A    between atoms: _72  and  _73
REMARK   20  A    between atoms: _72  and  _75
REMARK   21  A    between atoms: _75  and  _76
REMARK   22  A    between atoms: _81  and  _82
REMARK   23  A    between atoms: _84  and  _86
REMARK   24  A    between atoms: _86  and  _87
REMARK   25  A    between atoms: _86  and  _89
REMARK   26  A    between atoms: _92  and  _94
REMARK   27  A    between atoms: _94  and  _95
REMARK   28  A    between atoms: _94  and  _97
REMARK   29  A    between atoms: _97  and  _98
REMARK   30  A    between atoms: _98  and  _99
REMARK   31  A    between atoms: _99  and  _100
REMARK   32  A    between atoms: _109  and  _111
REMARK   33  A    between atoms: _111  and  _112
REMARK   34  A    between atoms: _111  and  _114
REMARK   35  A    between atoms: _114  and  _115
REMARK   36  A    between atoms: _117  and  _119
REMARK   37  A    between atoms: _119  and  _120
REMARK   38  A    between atoms: _119  and  _122
REMARK   39  A    between atoms: _122  and  _123
REMARK   40  A    between atoms: _123  and  _124
REMARK   41  A    between atoms: _129  and  _131
REMARK   42  A    between atoms: _131  and  _132
REMARK   43  A    between atoms: _131  and  _134
REMARK   44  A    between atoms: _134  and  _135
REMARK   45  A    between atoms: _135  and  _136
REMARK   46  A    between atoms: _136  and  _137
REMARK   47  A    between atoms: _136  and  _138
REMARK   48  A    between atoms: _137  and  ZN_426
REMARK   49  A    between atoms: _138  and  ZN_427
REMARK   50  A    between atoms: _139  and  _141
REMARK   51  A    between atoms: _141  and  _142
REMARK   52  A    between atoms: _141  and  _144
REMARK   53  A    between atoms: _144  and  _145
REMARK   54  A    between atoms: _150  and  _151
REMARK   55  A    between atoms: _153  and  _155
REMARK   56  A    between atoms: _155  and  _156
REMARK   57  A    between atoms: _155  and  _158
REMARK   58  A    between atoms: _158  and  _159
REMARK   59  A    between atoms: _162  and  _164
REMARK   60  A    between atoms: _164  and  _165
REMARK   61  A    between atoms: _164  and  _167
REMARK   62  A    between atoms: _167  and  _168
REMARK   63  A    between atoms: _171  and  _173
REMARK   64  A    between atoms: _173  and  _174
REMARK   65  A    between atoms: _173  and  _176
REMARK   66  A    between atoms: _176  and  _177
REMARK   67  A    between atoms: _182  and  _184
REMARK   68  A    between atoms: _184  and  _185
REMARK   69  A    between atoms: _184  and  _187
REMARK   70  A    between atoms: _187  and  _188
REMARK   71  A    between atoms: _193  and  _195
REMARK   72  A    between atoms: _195  and  _196
REMARK   73  A    between atoms: _195  and  _198
REMARK   74  A    between atoms: _198  and  _199
REMARK   75  A    between atoms: _202  and  _204
REMARK   76  A    between atoms: _204  and  _205
REMARK   77  A    between atoms: _204  and  _207
REMARK   78  A    between atoms: _207  and  _208
REMARK   79  A    between atoms: _210  and  _212
REMARK   80  A    between atoms: _212  and  _213
REMARK   81  A    between atoms: _212  and  _215
REMARK   82  A    between atoms: _215  and  _216
REMARK   83  A    between atoms: _220  and  ZN_427
REMARK   84  A    between atoms: _221  and  _223
REMARK   85  A    between atoms: _223  and  _224
REMARK   86  A    between atoms: _223  and  _226
REMARK   87  A    between atoms: _226  and  _227
REMARK   88  A    between atoms: _229  and  _231
REMARK   89  A    between atoms: _231  and  _232
REMARK   90  A    between atoms: _231  and  _234
REMARK   91  A    between atoms: _234  and  _235
REMARK   92  A    between atoms: _239  and  ZN_427
REMARK   93  A    between atoms: _240  and  _242
REMARK   94  A    between atoms: _242  and  _243
REMARK   95  A    between atoms: _242  and  _245
REMARK   96  A    between atoms: _245  and  _246
REMARK   97  A    between atoms: _248  and  _250
REMARK   98  A    between atoms: _250  and  _251
REMARK   99  A    between atoms: _250  and  _253
REMARK  100  A    between atoms: _253  and  _254
REMARK  101  A    between atoms: _259  and  _261
REMARK  102  A    between atoms: _261  and  _262
REMARK  103  A    between atoms: _261  and  _264
REMARK  104  A    between atoms: _264  and  _265
REMARK  105  A    between atoms: _265  and  _266
REMARK  106  A    between atoms: _266  and  _267
REMARK  107  A    between atoms: _276  and  _278
REMARK  108  A    between atoms: _278  and  _279
REMARK  109  A    between atoms: _278  and  _281
REMARK  110  A    between atoms: _281  and  _282
REMARK  111  A    between atoms: _285  and  _287
REMARK  112  A    between atoms: _287  and  _288
REMARK  113  A    between atoms: _287  and  _290
REMARK  114  A    between atoms: _294  and  _295
REMARK  115  A    between atoms: _300  and  _302
REMARK  116  A    between atoms: _302  and  _303
REMARK  117  A    between atoms: _302  and  _305
REMARK  118  A    between atoms: _305  and  _306
REMARK  119  A    between atoms: _306  and  _307
REMARK  120  A    between atoms: _307  and  _308
REMARK  121  A    between atoms: _308  and  _309
REMARK  122  A    between atoms: _313  and  _315
REMARK  123  A    between atoms: _315  and  _316
REMARK  124  A    between atoms: _315  and  _318
REMARK  125  A    between atoms: _318  and  _319
REMARK  126  A    between atoms: _325  and  _327
REMARK  127  A    between atoms: _327  and  _328
REMARK  128  A    between atoms: _327  and  _330
REMARK  129  A    between atoms: _330  and  _331
REMARK  130  A    between atoms: _334  and  _336
REMARK  131  A    between atoms: _336  and  _337
REMARK  132  A    between atoms: _336  and  _339
REMARK  133  A    between atoms: _339  and  _340
REMARK  134  A    between atoms: _340  and  _341
REMARK  135  A    between atoms: _341  and  _342
REMARK  136  A    between atoms: _351  and  _353
REMARK  137  A    between atoms: _353  and  _354
REMARK  138  A    between atoms: _356  and  _358
REMARK  139  A    between atoms: _358  and  _359
REMARK  140  A    between atoms: _361  and  _363
REMARK  141  A    between atoms: _363  and  _364
REMARK  142  A    between atoms: _363  and  _366
REMARK  143  A    between atoms: _366  and  _367
REMARK  144  A    between atoms: _370  and  _372
REMARK  145  A    between atoms: _372  and  _373
REMARK  146  A    between atoms: _372  and  _375
REMARK  147  A    between atoms: _375  and  _376
REMARK  148  A    between atoms: _381  and  _382
REMARK  149  A    between atoms: _384  and  _386
REMARK  150  A    between atoms: _386  and  _387
REMARK  151  A    between atoms: _386  and  _389
REMARK  152  A    between atoms: _389  and  _390
REMARK  153  A    between atoms: _393  and  _395
REMARK  154  A    between atoms: _395  and  _396
REMARK  155  A    between atoms: _398  and  _400
REMARK  156  A    between atoms: _400  and  _401
REMARK  157  A    between atoms: _400  and  _403
REMARK  158  A    between atoms: _403  and  _404
REMARK  159  A    between atoms: _408  and  _409
REMARK  160  A    between atoms: _414  and  _416
REMARK  161  A    between atoms: _416  and  _417
REMARK  162  A    between atoms: _416  and  _419
REMARK  163  A    between atoms: _419  and  _420
REMARK                            x       y       z     vdW  Elec       q    Type
REMARK                         _______ _______ _______ _____ _____    ______ ____
ROOT
ATOM      1  O   HOH     1     -30.810  33.198 -12.218  0.00  0.00    +0.000 OA
ENDROOT
TORSDOF 0
REMARK  Name = ../refined-set-2016/3k5x/3k5x_pocket.pdb
REMARK  163 active torsions:
REMARK  status: ('A' for Active; 'I' for Inactive)
REMARK    1  A    between atoms: _1  and  _3
REMARK    2  A    between atoms: _14  and  _17
REMARK    3  A    between atoms: _17  and  _18
REMARK    4  A    between atoms: _25  and  _26
REMARK    5  A    between atoms: _32  and  _34
REMARK    6  A    between atoms: _34  and  _35
REMARK    7  A    between atoms: _34  and  _37
REMARK    8  A    between atoms: _37  and  _38
REMARK    9  A    between atoms: _48  and  _50
REMARK   10  A    between atoms: _50  and  _51
REMARK   11  A    between atoms: _54  and  _56
REMARK   12  A    between atoms: _56  and  _57
REMARK   13  A    between atoms: _56  and  _59
REMARK   14  A    between atoms: _59  and  _60
REMARK   15  A    between atoms: _62  and  _64
REMARK   16  A    between atoms: _64  and  _65
REMARK   17  A    between atoms: _64  and  _67
REMARK   18  A    between atoms: _70  and  _72
REMARK   19  A    between atoms: _72  and  _73
REMARK   20  A    between atoms: _72  and  _75
REMARK   21  A    between atoms: _75  and  _76
REMARK   22  A    between atoms: _81  and  _82
REMARK   23  A    between atoms: _84  and  _86
REMARK   24  A    between atoms: _86  and  _87
REMARK   25  A    between atoms: _86  and  _89
REMARK   26  A    between atoms: _92  and  _94
REMARK   27  A    between atoms: _94  and  _95
REMARK   28  A    between atoms: _94  and  _97
REMARK   29  A    between atoms: _97  and  _98
REMARK   30  A    between atoms: _98  and  _99
REMARK   31  A    between atoms: _99  and  _100
REMARK   32  A    between atoms: _109  and  _111
REMARK   33  A    between atoms: _111  and  _112
REMARK   34  A    between atoms: _111  and  _114
REMARK   35  A    between atoms: _114  and  _115
REMARK   36  A    between atoms: _117  and  _119
REMARK   37  A    between atoms: _119  and  _120
REMARK   38  A    between atoms: _119  and  _122
REMARK   39  A    between atoms: _122  and  _123
REMARK   40  A    between atoms: _123  and  _124
REMARK   41  A    between atoms: _129  and  _131
REMARK   42  A    between atoms: _131  and  _132
REMARK   43  A    between atoms: _131  and  _134
REMARK   44  A    between atoms: _134  and  _135
REMARK   45  A    between atoms: _135  and  _136
REMARK   46  A    between atoms: _136  and  _137
REMARK   47  A    between atoms: _136  and  _138
REMARK   48  A    between atoms: _137  and  ZN_426
REMARK   49  A    between atoms: _138  and  ZN_427
REMARK   50  A    between atoms: _139  and  _141
REMARK   51  A    between atoms: _141  and  _142
REMARK   52  A    between atoms: _141  and  _144
REMARK   53  A    between atoms: _144  and  _145
REMARK   54  A    between atoms: _150  and  _151
REMARK   55  A    between atoms: _153  and  _155
REMARK   56  A    between atoms: _155  and  _156
REMARK   57  A    between atoms: _155  and  _158
REMARK   58  A    between atoms: _158  and  _159
REMARK   59  A    between atoms: _162  and  _164
REMARK   60  A    between atoms: _164  and  _165
REMARK   61  A    between atoms: _164  and  _167
REMARK   62  A    between atoms: _167  and  _168
REMARK   63  A    between atoms: _171  and  _173
REMARK   64  A    between atoms: _173  and  _174
REMARK   65  A    between atoms: _173  and  _176
REMARK   66  A    between atoms: _176  and  _177
REMARK   67  A    between atoms: _182  and  _184
REMARK   68  A    between atoms: _184  and  _185
REMARK   69  A    between atoms: _184  and  _187
REMARK   70  A    between atoms: _187  and  _188
REMARK   71  A    between atoms: _193  and  _195
REMARK   72  A    between atoms: _195  and  _196
REMARK   73  A    between atoms: _195  and  _198
REMARK   74  A    between atoms: _198  and  _199
REMARK   75  A    between atoms: _202  and  _204
REMARK   76  A    between atoms: _204  and  _205
REMARK   77  A    between atoms: _204  and  _207
REMARK   78  A    between atoms: _207  and  _208
REMARK   79  A    between atoms: _210  and  _212
REMARK   80  A    between atoms: _212  and  _213
REMARK   81  A    between atoms: _212  and  _215
REMARK   82  A    between atoms: _215  and  _216
REMARK   83  A    between atoms: _220  and  ZN_427
REMARK   84  A    between atoms: _221  and  _223
REMARK   85  A    between atoms: _223  and  _224
REMARK   86  A    between atoms: _223  and  _226
REMARK   87  A    between atoms: _226  and  _227
REMARK   88  A    between atoms: _229  and  _231
REMARK   89  A    between atoms: _231  and  _232
REMARK   90  A    between atoms: _231  and  _234
REMARK   91  A    between atoms: _234  and  _235
REMARK   92  A    between atoms: _239  and  ZN_427
REMARK   93  A    between atoms: _240  and  _242
REMARK   94  A    between atoms: _242  and  _243
REMARK   95  A    between atoms: _242  and  _245
REMARK   96  A    between atoms: _245  and  _246
REMARK   97  A    between atoms: _248  and  _250
REMARK   98  A    between atoms: _250  and  _251
REMARK   99  A    between atoms: _250  and  _253
REMARK  100  A    between atoms: _253  and  _254
REMARK  101  A    between atoms: _259  and  _261
REMARK  102  A    between atoms: _261  and  _262
REMARK  103  A    between atoms: _261  and  _264
REMARK  104  A    between atoms: _264  and  _265
REMARK  105  A    between atoms: _265  and  _266
REMARK  106  A    between atoms: _266  and  _267
REMARK  107  A    between atoms: _276  and  _278
REMARK  108  A    between atoms: _278  and  _279
REMARK  109  A    between atoms: _278  and  _281
REMARK  110  A    between atoms: _281  and  _282
REMARK  111  A    between atoms: _285  and  _287
REMARK  112  A    between atoms: _287  and  _288
REMARK  113  A    between atoms: _287  and  _290
REMARK  114  A    between atoms: _294  and  _295
REMARK  115  A    between atoms: _300  and  _302
REMARK  116  A    between atoms: _302  and  _303
REMARK  117  A    between atoms: _302  and  _305
REMARK  118  A    between atoms: _305  and  _306
REMARK  119  A    between atoms: _306  and  _307
REMARK  120  A    between atoms: _307  and  _308
REMARK  121  A    between atoms: _308  and  _309
REMARK  122  A    between atoms: _313  and  _315
REMARK  123  A    between atoms: _315  and  _316
REMARK  124  A    between atoms: _315  and  _318
REMARK  125  A    between atoms: _318  and  _319
REMARK  126  A    between atoms: _325  and  _327
REMARK  127  A    between atoms: _327  and  _328
REMARK  128  A    between atoms: _327  and  _330
REMARK  129  A    between atoms: _330  and  _331
REMARK  130  A    between atoms: _334  and  _336
REMARK  131  A    between atoms: _336  and  _337
REMARK  132  A    between atoms: _336  and  _339
REMARK  133  A    between atoms: _339  and  _340
REMARK  134  A    between atoms: _340  and  _341
REMARK  135  A    between atoms: _341  and  _342
REMARK  136  A    between atoms: _351  and  _353
REMARK  137  A    between atoms: _353  and  _354
REMARK  138  A    between atoms: _356  and  _358
REMARK  139  A    between atoms: _358  and  _359
REMARK  140  A    between atoms: _361  and  _363
REMARK  141  A    between atoms: _363  and  _364
REMARK  142  A    between atoms: _363  and  _366
REMARK  143  A    between atoms: _366  and  _367
REMARK  144  A    between atoms: _370  and  _372
REMARK  145  A    between atoms: _372  and  _373
REMARK  146  A    between atoms: _372  and  _375
REMARK  147  A    between atoms: _375  and  _376
REMARK  148  A    between atoms: _381  and  _382
REMARK  149  A    between atoms: _384  and  _386
REMARK  150  A    between atoms: _386  and  _387
REMARK  151  A    between atoms: _386  and  _389
REMARK  152  A    between atoms: _389  and  _390
REMARK  153  A    between atoms: _393  and  _395
REMARK  154  A    between atoms: _395  and  _396
REMARK  155  A    between atoms: _398  and  _400
REMARK  156  A    between atoms: _400  and  _401
REMARK  157  A    between atoms: _400  and  _403
REMARK  158  A    between atoms: _403  and  _404
REMARK  159  A    between atoms: _408  and  _409
REMARK  160  A    between atoms: _414  and  _416
REMARK  161  A    between atoms: _416  and  _417
REMARK  162  A    between atoms: _416  and  _419
REMARK  163  A    between atoms: _419  and  _420
REMARK                            x       y       z     vdW  Elec       q    Type
REMARK                         _______ _______ _______ _____ _____    ______ ____
ROOT
ATOM      1  O   HOH     1     -19.800  33.132 -12.314  0.00  0.00    +0.000 OA
ENDROOT
TORSDOF 0
REMARK  Name = ../refined-set-2016/3k5x/3k5x_pocket.pdb
REMARK  163 active torsions:
REMARK  status: ('A' for Active; 'I' for Inactive)
REMARK    1  A    between atoms: _1  and  _3
REMARK    2  A    between atoms: _14  and  _17
REMARK    3  A    between atoms: _17  and  _18
REMARK    4  A    between atoms: _25  and  _26
REMARK    5  A    between atoms: _32  and  _34
REMARK    6  A    between atoms: _34  and  _35
REMARK    7  A    between atoms: _34  and  _37
REMARK    8  A    between atoms: _37  and  _38
REMARK    9  A    between atoms: _48  and  _50
REMARK   10  A    between atoms: _50  and  _51
REMARK   11  A    between atoms: _54  and  _56
REMARK   12  A    between atoms: _56  and  _57
REMARK   13  A    between atoms: _56  and  _59
REMARK   14  A    between atoms: _59  and  _60
REMARK   15  A    between atoms: _62  and  _64
REMARK   16  A    between atoms: _64  and  _65
REMARK   17  A    between atoms: _64  and  _67
REMARK   18  A    between atoms: _70  and  _72
REMARK   19  A    between atoms: _72  and  _73
REMARK   20  A    between atoms: _72  and  _75
REMARK   21  A    between atoms: _75  and  _76
REMARK   22  A    between atoms: _81  and  _82
REMARK   23  A    between atoms: _84  and  _86
REMARK   24  A    between atoms: _86  and  _87
REMARK   25  A    between atoms: _86  and  _89
REMARK   26  A    between atoms: _92  and  _94
REMARK   27  A    between atoms: _94  and  _95
REMARK   28  A    between atoms: _94  and  _97
REMARK   29  A    between atoms: _97  and  _98
REMARK   30  A    between atoms: _98  and  _99
REMARK   31  A    between atoms: _99  and  _100
REMARK   32  A    between atoms: _109  and  _111
REMARK   33  A    between atoms: _111  and  _112
REMARK   34  A    between atoms: _111  and  _114
REMARK   35  A    between atoms: _114  and  _115
REMARK   36  A    between atoms: _117  and  _119
REMARK   37  A    between atoms: _119  and  _120
REMARK   38  A    between atoms: _119  and  _122
REMARK   39  A    between atoms: _122  and  _123
REMARK   40  A    between atoms: _123  and  _124
REMARK   41  A    between atoms: _129  and  _131
REMARK   42  A    between atoms: _131  and  _132
REMARK   43  A    between atoms: _131  and  _134
REMARK   44  A    between atoms: _134  and  _135
REMARK   45  A    between atoms: _135  and  _136
REMARK   46  A    between atoms: _136  and  _137
REMARK   47  A    between atoms: _136  and  _138
REMARK   48  A    between atoms: _137  and  ZN_426
REMARK   49  A    between atoms: _138  and  ZN_427
REMARK   50  A    between atoms: _139  and  _141
REMARK   51  A    between atoms: _141  and  _142
REMARK   52  A    between atoms: _141  and  _144
REMARK   53  A    between atoms: _144  and  _145
REMARK   54  A    between atoms: _150  and  _151
REMARK   55  A    between atoms: _153  and  _155
REMARK   56  A    between atoms: _155  and  _156
REMARK   57  A    between atoms: _155  and  _158
REMARK   58  A    between atoms: _158  and  _159
REMARK   59  A    between atoms: _162  and  _164
REMARK   60  A    between atoms: _164  and  _165
REMARK   61  A    between atoms: _164  and  _167
REMARK   62  A    between atoms: _167  and  _168
REMARK   63  A    between atoms: _171  and  _173
REMARK   64  A    between atoms: _173  and  _174
REMARK   65  A    between atoms: _173  and  _176
REMARK   66  A    between atoms: _176  and  _177
REMARK   67  A    between atoms: _182  and  _184
REMARK   68  A    between atoms: _184  and  _185
REMARK   69  A    between atoms: _184  and  _187
REMARK   70  A    between atoms: _187  and  _188
REMARK   71  A    between atoms: _193  and  _195
REMARK   72  A    between atoms: _195  and  _196
REMARK   73  A    between atoms: _195  and  _198
REMARK   74  A    between atoms: _198  and  _199
REMARK   75  A    between atoms: _202  and  _204
REMARK   76  A    between atoms: _204  and  _205
REMARK   77  A    between atoms: _204  and  _207
REMARK   78  A    between atoms: _207  and  _208
REMARK   79  A    between atoms: _210  and  _212
REMARK   80  A    between atoms: _212  and  _213
REMARK   81  A    between atoms: _212  and  _215
REMARK   82  A    between atoms: _215  and  _216
REMARK   83  A    between atoms: _220  and  ZN_427
REMARK   84  A    between atoms: _221  and  _223
REMARK   85  A    between atoms: _223  and  _224
REMARK   86  A    between atoms: _223  and  _226
REMARK   87  A    between atoms: _226  and  _227
REMARK   88  A    between atoms: _229  and  _231
REMARK   89  A    between atoms: _231  and  _232
REMARK   90  A    between atoms: _231  and  _234
REMARK   91  A    between atoms: _234  and  _235
REMARK   92  A    between atoms: _239  and  ZN_427
REMARK   93  A    between atoms: _240  and  _242
REMARK   94  A    between atoms: _242  and  _243
REMARK   95  A    between atoms: _242  and  _245
REMARK   96  A    between atoms: _245  and  _246
REMARK   97  A    between atoms: _248  and  _250
REMARK   98  A    between atoms: _250  and  _251
REMARK   99  A    between atoms: _250  and  _253
REMARK  100  A    between atoms: _253  and  _254
REMARK  101  A    between atoms: _259  and  _261
REMARK  102  A    between atoms: _261  and  _262
REMARK  103  A    between atoms: _261  and  _264
REMARK  104  A    between atoms: _264  and  _265
REMARK  105  A    between atoms: _265  and  _266
REMARK  106  A    between atoms: _266  and  _267
REMARK  107  A    between atoms: _276  and  _278
REMARK  108  A    between atoms: _278  and  _279
REMARK  109  A    between atoms: _278  and  _281
REMARK  110  A    between atoms: _281  and  _282
REMARK  111  A    between atoms: _285  and  _287
REMARK  112  A    between atoms: _287  and  _288
REMARK  113  A    between atoms: _287  and  _290
REMARK  114  A    between atoms: _294  and  _295
REMARK  115  A    between atoms: _300  and  _302
REMARK  116  A    between atoms: _302  and  _303
REMARK  117  A    between atoms: _302  and  _305
REMARK  118  A    between atoms: _305  and  _306
REMARK  119  A    between atoms: _306  and  _307
REMARK  120  A    between atoms: _307  and  _308
REMARK  121  A    between atoms: _308  and  _309
REMARK  122  A    between atoms: _313  and  _315
REMARK  123  A    between atoms: _315  and  _316
REMARK  124  A    between atoms: _315  and  _318
REMARK  125  A    between atoms: _318  and  _319
REMARK  126  A    between atoms: _325  and  _327
REMARK  127  A    between atoms: _327  and  _328
REMARK  128  A    between atoms: _327  and  _330
REMARK  129  A    between atoms: _330  and  _331
REMARK  130  A    between atoms: _334  and  _336
REMARK  131  A    between atoms: _336  and  _337
REMARK  132  A    between atoms: _336  and  _339
REMARK  133  A    between atoms: _339  and  _340
REMARK  134  A    between atoms: _340  and  _341
REMARK  135  A    between atoms: _341  and  _342
REMARK  136  A    between atoms: _351  and  _353
REMARK  137  A    between atoms: _353  and  _354
REMARK  138  A    between atoms: _356  and  _358
REMARK  139  A    between atoms: _358  and  _359
REMARK  140  A    between atoms: _361  and  _363
REMARK  141  A    between atoms: _363  and  _364
REMARK  142  A    between atoms: _363  and  _366
REMARK  143  A    between atoms: _366  and  _367
REMARK  144  A    between atoms: _370  and  _372
REMARK  145  A    between atoms: _372  and  _373
REMARK  146  A    between atoms: _372  and  _375
REMARK  147  A    between atoms: _375  and  _376
REMARK  148  A    between atoms: _381  and  _382
REMARK  149  A    between atoms: _384  and  _386
REMARK  150  A    between atoms: _386  and  _387
REMARK  151  A    between atoms: _386  and  _389
REMARK  152  A    between atoms: _389  and  _390
REMARK  153  A    between atoms: _393  and  _395
REMARK  154  A    between atoms: _395  and  _396
REMARK  155  A    between atoms: _398  and  _400
REMARK  156  A    between atoms: _400  and  _401
REMARK  157  A    between atoms: _400  and  _403
REMARK  158  A    between atoms: _403  and  _404
REMARK  159  A    between atoms: _408  and  _409
REMARK  160  A    between atoms: _414  and  _416
REMARK  161  A    between atoms: _416  and  _417
REMARK  162  A    between atoms: _416  and  _419
REMARK  163  A    between atoms: _419  and  _420
REMARK                            x       y       z     vdW  Elec       q    Type
REMARK                         _______ _______ _______ _____ _____    ______ ____
ROOT
ATOM      1  O   HOH     1     -34.215  32.922  -9.321  0.00  0.00    +0.000 OA
ENDROOT
TORSDOF 0
REMARK  Name = ../refined-set-2016/3k5x/3k5x_pocket.pdb
REMARK  163 active torsions:
REMARK  status: ('A' for Active; 'I' for Inactive)
REMARK    1  A    between atoms: _1  and  _3
REMARK    2  A    between atoms: _14  and  _17
REMARK    3  A    between atoms: _17  and  _18
REMARK    4  A    between atoms: _25  and  _26
REMARK    5  A    between atoms: _32  and  _34
REMARK    6  A    between atoms: _34  and  _35
REMARK    7  A    between atoms: _34  and  _37
REMARK    8  A    between atoms: _37  and  _38
REMARK    9  A    between atoms: _48  and  _50
REMARK   10  A    between atoms: _50  and  _51
REMARK   11  A    between atoms: _54  and  _56
REMARK   12  A    between atoms: _56  and  _57
REMARK   13  A    between atoms: _56  and  _59
REMARK   14  A    between atoms: _59  and  _60
REMARK   15  A    between atoms: _62  and  _64
REMARK   16  A    between atoms: _64  and  _65
REMARK   17  A    between atoms: _64  and  _67
REMARK   18  A    between atoms: _70  and  _72
REMARK   19  A    between atoms: _72  and  _73
REMARK   20  A    between atoms: _72  and  _75
REMARK   21  A    between atoms: _75  and  _76
REMARK   22  A    between atoms: _81  and  _82
REMARK   23  A    between atoms: _84  and  _86
REMARK   24  A    between atoms: _86  and  _87
REMARK   25  A    between atoms: _86  and  _89
REMARK   26  A    between atoms: _92  and  _94
REMARK   27  A    between atoms: _94  and  _95
REMARK   28  A    between atoms: _94  and  _97
REMARK   29  A    between atoms: _97  and  _98
REMARK   30  A    between atoms: _98  and  _99
REMARK   31  A    between atoms: _99  and  _100
REMARK   32  A    between atoms: _109  and  _111
REMARK   33  A    between atoms: _111  and  _112
REMARK   34  A    between atoms: _111  and  _114
REMARK   35  A    between atoms: _114  and  _115
REMARK   36  A    between atoms: _117  and  _119
REMARK   37  A    between atoms: _119  and  _120
REMARK   38  A    between atoms: _119  and  _122
REMARK   39  A    between atoms: _122  and  _123
REMARK   40  A    between atoms: _123  and  _124
REMARK   41  A    between atoms: _129  and  _131
REMARK   42  A    between atoms: _131  and  _132
REMARK   43  A    between atoms: _131  and  _134
REMARK   44  A    between atoms: _134  and  _135
REMARK   45  A    between atoms: _135  and  _136
REMARK   46  A    between atoms: _136  and  _137
REMARK   47  A    between atoms: _136  and  _138
REMARK   48  A    between atoms: _137  and  ZN_426
REMARK   49  A    between atoms: _138  and  ZN_427
REMARK   50  A    between atoms: _139  and  _141
REMARK   51  A    between atoms: _141  and  _142
REMARK   52  A    between atoms: _141  and  _144
REMARK   53  A    between atoms: _144  and  _145
REMARK   54  A    between atoms: _150  and  _151
REMARK   55  A    between atoms: _153  and  _155
REMARK   56  A    between atoms: _155  and  _156
REMARK   57  A    between atoms: _155  and  _158
REMARK   58  A    between atoms: _158  and  _159
REMARK   59  A    between atoms: _162  and  _164
REMARK   60  A    between atoms: _164  and  _165
REMARK   61  A    between atoms: _164  and  _167
REMARK   62  A    between atoms: _167  and  _168
REMARK   63  A    between atoms: _171  and  _173
REMARK   64  A    between atoms: _173  and  _174
REMARK   65  A    between atoms: _173  and  _176
REMARK   66  A    between atoms: _176  and  _177
REMARK   67  A    between atoms: _182  and  _184
REMARK   68  A    between atoms: _184  and  _185
REMARK   69  A    between atoms: _184  and  _187
REMARK   70  A    between atoms: _187  and  _188
REMARK   71  A    between atoms: _193  and  _195
REMARK   72  A    between atoms: _195  and  _196
REMARK   73  A    between atoms: _195  and  _198
REMARK   74  A    between atoms: _198  and  _199
REMARK   75  A    between atoms: _202  and  _204
REMARK   76  A    between atoms: _204  and  _205
REMARK   77  A    between atoms: _204  and  _207
REMARK   78  A    between atoms: _207  and  _208
REMARK   79  A    between atoms: _210  and  _212
REMARK   80  A    between atoms: _212  and  _213
REMARK   81  A    between atoms: _212  and  _215
REMARK   82  A    between atoms: _215  and  _216
REMARK   83  A    between atoms: _220  and  ZN_427
REMARK   84  A    between atoms: _221  and  _223
REMARK   85  A    between atoms: _223  and  _224
REMARK   86  A    between atoms: _223  and  _226
REMARK   87  A    between atoms: _226  and  _227
REMARK   88  A    between atoms: _229  and  _231
REMARK   89  A    between atoms: _231  and  _232
REMARK   90  A    between atoms: _231  and  _234
REMARK   91  A    between atoms: _234  and  _235
REMARK   92  A    between atoms: _239  and  ZN_427
REMARK   93  A    between atoms: _240  and  _242
REMARK   94  A    between atoms: _242  and  _243
REMARK   95  A    between atoms: _242  and  _245
REMARK   96  A    between atoms: _245  and  _246
REMARK   97  A    between atoms: _248  and  _250
REMARK   98  A    between atoms: _250  and  _251
REMARK   99  A    between atoms: _250  and  _253
REMARK  100  A    between atoms: _253  and  _254
REMARK  101  A    between atoms: _259  and  _261
REMARK  102  A    between atoms: _261  and  _262
REMARK  103  A    between atoms: _261  and  _264
REMARK  104  A    between atoms: _264  and  _265
REMARK  105  A    between atoms: _265  and  _266
REMARK  106  A    between atoms: _266  and  _267
REMARK  107  A    between atoms: _276  and  _278
REMARK  108  A    between atoms: _278  and  _279
REMARK  109  A    between atoms: _278  and  _281
REMARK  110  A    between atoms: _281  and  _282
REMARK  111  A    between atoms: _285  and  _287
REMARK  112  A    between atoms: _287  and  _288
REMARK  113  A    between atoms: _287  and  _290
REMARK  114  A    between atoms: _294  and  _295
REMARK  115  A    between atoms: _300  and  _302
REMARK  116  A    between atoms: _302  and  _303
REMARK  117  A    between atoms: _302  and  _305
REMARK  118  A    between atoms: _305  and  _306
REMARK  119  A    between atoms: _306  and  _307
REMARK  120  A    between atoms: _307  and  _308
REMARK  121  A    between atoms: _308  and  _309
REMARK  122  A    between atoms: _313  and  _315
REMARK  123  A    between atoms: _315  and  _316
REMARK  124  A    between atoms: _315  and  _318
REMARK  125  A    between atoms: _318  and  _319
REMARK  126  A    between atoms: _325  and  _327
REMARK  127  A    between atoms: _327  and  _328
REMARK  128  A    between atoms: _327  and  _330
REMARK  129  A    between atoms: _330  and  _331
REMARK  130  A    between atoms: _334  and  _336
REMARK  131  A    between atoms: _336  and  _337
REMARK  132  A    between atoms: _336  and  _339
REMARK  133  A    between atoms: _339  and  _340
REMARK  134  A    between atoms: _340  and  _341
REMARK  135  A    between atoms: _341  and  _342
REMARK  136  A    between atoms: _351  and  _353
REMARK  137  A    between atoms: _353  and  _354
REMARK  138  A    between atoms: _356  and  _358
REMARK  139  A    between atoms: _358  and  _359
REMARK  140  A    between atoms: _361  and  _363
REMARK  141  A    between atoms: _363  and  _364
REMARK  142  A    between atoms: _363  and  _366
REMARK  143  A    between atoms: _366  and  _367
REMARK  144  A    between atoms: _370  and  _372
REMARK  145  A    between atoms: _372  and  _373
REMARK  146  A    between atoms: _372  and  _375
REMARK  147  A    between atoms: _375  and  _376
REMARK  148  A    between atoms: _381  and  _382
REMARK  149  A    between atoms: _384  and  _386
REMARK  150  A    between atoms: _386  and  _387
REMARK  151  A    between atoms: _386  and  _389
REMARK  152  A    between atoms: _389  and  _390
REMARK  153  A    between atoms: _393  and  _395
REMARK  154  A    between atoms: _395  and  _396
REMARK  155  A    between atoms: _398  and  _400
REMARK  156  A    between atoms: _400  and  _401
REMARK  157  A    between atoms: _400  and  _403
REMARK  158  A    between atoms: _403  and  _404
REMARK  159  A    between atoms: _408  and  _409
REMARK  160  A    between atoms: _414  and  _416
REMARK  161  A    between atoms: _416  and  _417
REMARK  162  A    between atoms: _416  and  _419
REMARK  163  A    between atoms: _419  and  _420
REMARK                            x       y       z     vdW  Elec       q    Type
REMARK                         _______ _______ _______ _____ _____    ______ ____
ROOT
ATOM      1  O   HOH     1     -27.855  34.041  -8.352  0.00  0.00    +0.000 OA
ENDROOT
TORSDOF 0
REMARK  Name = ../refined-set-2016/3k5x/3k5x_pocket.pdb
REMARK  163 active torsions:
REMARK  status: ('A' for Active; 'I' for Inactive)
REMARK    1  A    between atoms: _1  and  _3
REMARK    2  A    between atoms: _14  and  _17
REMARK    3  A    between atoms: _17  and  _18
REMARK    4  A    between atoms: _25  and  _26
REMARK    5  A    between atoms: _32  and  _34
REMARK    6  A    between atoms: _34  and  _35
REMARK    7  A    between atoms: _34  and  _37
REMARK    8  A    between atoms: _37  and  _38
REMARK    9  A    between atoms: _48  and  _50
REMARK   10  A    between atoms: _50  and  _51
REMARK   11  A    between atoms: _54  and  _56
REMARK   12  A    between atoms: _56  and  _57
REMARK   13  A    between atoms: _56  and  _59
REMARK   14  A    between atoms: _59  and  _60
REMARK   15  A    between atoms: _62  and  _64
REMARK   16  A    between atoms: _64  and  _65
REMARK   17  A    between atoms: _64  and  _67
REMARK   18  A    between atoms: _70  and  _72
REMARK   19  A    between atoms: _72  and  _73
REMARK   20  A    between atoms: _72  and  _75
REMARK   21  A    between atoms: _75  and  _76
REMARK   22  A    between atoms: _81  and  _82
REMARK   23  A    between atoms: _84  and  _86
REMARK   24  A    between atoms: _86  and  _87
REMARK   25  A    between atoms: _86  and  _89
REMARK   26  A    between atoms: _92  and  _94
REMARK   27  A    between atoms: _94  and  _95
REMARK   28  A    between atoms: _94  and  _97
REMARK   29  A    between atoms: _97  and  _98
REMARK   30  A    between atoms: _98  and  _99
REMARK   31  A    between atoms: _99  and  _100
REMARK   32  A    between atoms: _109  and  _111
REMARK   33  A    between atoms: _111  and  _112
REMARK   34  A    between atoms: _111  and  _114
REMARK   35  A    between atoms: _114  and  _115
REMARK   36  A    between atoms: _117  and  _119
REMARK   37  A    between atoms: _119  and  _120
REMARK   38  A    between atoms: _119  and  _122
REMARK   39  A    between atoms: _122  and  _123
REMARK   40  A    between atoms: _123  and  _124
REMARK   41  A    between atoms: _129  and  _131
REMARK   42  A    between atoms: _131  and  _132
REMARK   43  A    between atoms: _131  and  _134
REMARK   44  A    between atoms: _134  and  _135
REMARK   45  A    between atoms: _135  and  _136
REMARK   46  A    between atoms: _136  and  _137
REMARK   47  A    between atoms: _136  and  _138
REMARK   48  A    between atoms: _137  and  ZN_426
REMARK   49  A    between atoms: _138  and  ZN_427
REMARK   50  A    between atoms: _139  and  _141
REMARK   51  A    between atoms: _141  and  _142
REMARK   52  A    between atoms: _141  and  _144
REMARK   53  A    between atoms: _144  and  _145
REMARK   54  A    between atoms: _150  and  _151
REMARK   55  A    between atoms: _153  and  _155
REMARK   56  A    between atoms: _155  and  _156
REMARK   57  A    between atoms: _155  and  _158
REMARK   58  A    between atoms: _158  and  _159
REMARK   59  A    between atoms: _162  and  _164
REMARK   60  A    between atoms: _164  and  _165
REMARK   61  A    between atoms: _164  and  _167
REMARK   62  A    between atoms: _167  and  _168
REMARK   63  A    between atoms: _171  and  _173
REMARK   64  A    between atoms: _173  and  _174
REMARK   65  A    between atoms: _173  and  _176
REMARK   66  A    between atoms: _176  and  _177
REMARK   67  A    between atoms: _182  and  _184
REMARK   68  A    between atoms: _184  and  _185
REMARK   69  A    between atoms: _184  and  _187
REMARK   70  A    between atoms: _187  and  _188
REMARK   71  A    between atoms: _193  and  _195
REMARK   72  A    between atoms: _195  and  _196
REMARK   73  A    between atoms: _195  and  _198
REMARK   74  A    between atoms: _198  and  _199
REMARK   75  A    between atoms: _202  and  _204
REMARK   76  A    between atoms: _204  and  _205
REMARK   77  A    between atoms: _204  and  _207
REMARK   78  A    between atoms: _207  and  _208
REMARK   79  A    between atoms: _210  and  _212
REMARK   80  A    between atoms: _212  and  _213
REMARK   81  A    between atoms: _212  and  _215
REMARK   82  A    between atoms: _215  and  _216
REMARK   83  A    between atoms: _220  and  ZN_427
REMARK   84  A    between atoms: _221  and  _223
REMARK   85  A    between atoms: _223  and  _224
REMARK   86  A    between atoms: _223  and  _226
REMARK   87  A    between atoms: _226  and  _227
REMARK   88  A    between atoms: _229  and  _231
REMARK   89  A    between atoms: _231  and  _232
REMARK   90  A    between atoms: _231  and  _234
REMARK   91  A    between atoms: _234  and  _235
REMARK   92  A    between atoms: _239  and  ZN_427
REMARK   93  A    between atoms: _240  and  _242
REMARK   94  A    between atoms: _242  and  _243
REMARK   95  A    between atoms: _242  and  _245
REMARK   96  A    between atoms: _245  and  _246
REMARK   97  A    between atoms: _248  and  _250
REMARK   98  A    between atoms: _250  and  _251
REMARK   99  A    between atoms: _250  and  _253
REMARK  100  A    between atoms: _253  and  _254
REMARK  101  A    between atoms: _259  and  _261
REMARK  102  A    between atoms: _261  and  _262
REMARK  103  A    between atoms: _261  and  _264
REMARK  104  A    between atoms: _264  and  _265
REMARK  105  A    between atoms: _265  and  _266
REMARK  106  A    between atoms: _266  and  _267
REMARK  107  A    between atoms: _276  and  _278
REMARK  108  A    between atoms: _278  and  _279
REMARK  109  A    between atoms: _278  and  _281
REMARK  110  A    between atoms: _281  and  _282
REMARK  111  A    between atoms: _285  and  _287
REMARK  112  A    between atoms: _287  and  _288
REMARK  113  A    between atoms: _287  and  _290
REMARK  114  A    between atoms: _294  and  _295
REMARK  115  A    between atoms: _300  and  _302
REMARK  116  A    between atoms: _302  and  _303
REMARK  117  A    between atoms: _302  and  _305
REMARK  118  A    between atoms: _305  and  _306
REMARK  119  A    between atoms: _306  and  _307
REMARK  120  A    between atoms: _307  and  _308
REMARK  121  A    between atoms: _308  and  _309
REMARK  122  A    between atoms: _313  and  _315
REMARK  123  A    between atoms: _315  and  _316
REMARK  124  A    between atoms: _315  and  _318
REMARK  125  A    between atoms: _318  and  _319
REMARK  126  A    between atoms: _325  and  _327
REMARK  127  A    between atoms: _327  and  _328
REMARK  128  A    between atoms: _327  and  _330
REMARK  129  A    between atoms: _330  and  _331
REMARK  130  A    between atoms: _334  and  _336
REMARK  131  A    between atoms: _336  and  _337
REMARK  132  A    between atoms: _336  and  _339
REMARK  133  A    between atoms: _339  and  _340
REMARK  134  A    between atoms: _340  and  _341
REMARK  135  A    between atoms: _341  and  _342
REMARK  136  A    between atoms: _351  and  _353
REMARK  137  A    between atoms: _353  and  _354
REMARK  138  A    between atoms: _356  and  _358
REMARK  139  A    between atoms: _358  and  _359
REMARK  140  A    between atoms: _361  and  _363
REMARK  141  A    between atoms: _363  and  _364
REMARK  142  A    between atoms: _363  and  _366
REMARK  143  A    between atoms: _366  and  _367
REMARK  144  A    between atoms: _370  and  _372
REMARK  145  A    between atoms: _372  and  _373
REMARK  146  A    between atoms: _372  and  _375
REMARK  147  A    between atoms: _375  and  _376
REMARK  148  A    between atoms: _381  and  _382
REMARK  149  A    between atoms: _384  and  _386
REMARK  150  A    between atoms: _386  and  _387
REMARK  151  A    between atoms: _386  and  _389
REMARK  152  A    between atoms: _389  and  _390
REMARK  153  A    between atoms: _393  and  _395
REMARK  154  A    between atoms: _395  and  _396
REMARK  155  A    between atoms: _398  and  _400
REMARK  156  A    between atoms: _400  and  _401
REMARK  157  A    between atoms: _400  and  _403
REMARK  158  A    between atoms: _403  and  _404
REMARK  159  A    between atoms: _408  and  _409
REMARK  160  A    between atoms: _414  and  _416
REMARK  161  A    between atoms: _416  and  _417
REMARK  162  A    between atoms: _416  and  _419
REMARK  163  A    between atoms: _419  and  _420
REMARK                            x       y       z     vdW  Elec       q    Type
REMARK                         _______ _______ _______ _____ _____    ______ ____
ROOT
ATOM      1  O   HOH     1     -23.285  35.337 -14.477  0.00  0.00    +0.000 OA
ENDROOT
TORSDOF 0
REMARK  Name = ../refined-set-2016/3k5x/3k5x_pocket.pdb
REMARK  163 active torsions:
REMARK  status: ('A' for Active; 'I' for Inactive)
REMARK    1  A    between atoms: _1  and  _3
REMARK    2  A    between atoms: _14  and  _17
REMARK    3  A    between atoms: _17  and  _18
REMARK    4  A    between atoms: _25  and  _26
REMARK    5  A    between atoms: _32  and  _34
REMARK    6  A    between atoms: _34  and  _35
REMARK    7  A    between atoms: _34  and  _37
REMARK    8  A    between atoms: _37  and  _38
REMARK    9  A    between atoms: _48  and  _50
REMARK   10  A    between atoms: _50  and  _51
REMARK   11  A    between atoms: _54  and  _56
REMARK   12  A    between atoms: _56  and  _57
REMARK   13  A    between atoms: _56  and  _59
REMARK   14  A    between atoms: _59  and  _60
REMARK   15  A    between atoms: _62  and  _64
REMARK   16  A    between atoms: _64  and  _65
REMARK   17  A    between atoms: _64  and  _67
REMARK   18  A    between atoms: _70  and  _72
REMARK   19  A    between atoms: _72  and  _73
REMARK   20  A    between atoms: _72  and  _75
REMARK   21  A    between atoms: _75  and  _76
REMARK   22  A    between atoms: _81  and  _82
REMARK   23  A    between atoms: _84  and  _86
REMARK   24  A    between atoms: _86  and  _87
REMARK   25  A    between atoms: _86  and  _89
REMARK   26  A    between atoms: _92  and  _94
REMARK   27  A    between atoms: _94  and  _95
REMARK   28  A    between atoms: _94  and  _97
REMARK   29  A    between atoms: _97  and  _98
REMARK   30  A    between atoms: _98  and  _99
REMARK   31  A    between atoms: _99  and  _100
REMARK   32  A    between atoms: _109  and  _111
REMARK   33  A    between atoms: _111  and  _112
REMARK   34  A    between atoms: _111  and  _114
REMARK   35  A    between atoms: _114  and  _115
REMARK   36  A    between atoms: _117  and  _119
REMARK   37  A    between atoms: _119  and  _120
REMARK   38  A    between atoms: _119  and  _122
REMARK   39  A    between atoms: _122  and  _123
REMARK   40  A    between atoms: _123  and  _124
REMARK   41  A    between atoms: _129  and  _131
REMARK   42  A    between atoms: _131  and  _132
REMARK   43  A    between atoms: _131  and  _134
REMARK   44  A    between atoms: _134  and  _135
REMARK   45  A    between atoms: _135  and  _136
REMARK   46  A    between atoms: _136  and  _137
REMARK   47  A    between atoms: _136  and  _138
REMARK   48  A    between atoms: _137  and  ZN_426
REMARK   49  A    between atoms: _138  and  ZN_427
REMARK   50  A    between atoms: _139  and  _141
REMARK   51  A    between atoms: _141  and  _142
REMARK   52  A    between atoms: _141  and  _144
REMARK   53  A    between atoms: _144  and  _145
REMARK   54  A    between atoms: _150  and  _151
REMARK   55  A    between atoms: _153  and  _155
REMARK   56  A    between atoms: _155  and  _156
REMARK   57  A    between atoms: _155  and  _158
REMARK   58  A    between atoms: _158  and  _159
REMARK   59  A    between atoms: _162  and  _164
REMARK   60  A    between atoms: _164  and  _165
REMARK   61  A    between atoms: _164  and  _167
REMARK   62  A    between atoms: _167  and  _168
REMARK   63  A    between atoms: _171  and  _173
REMARK   64  A    between atoms: _173  and  _174
REMARK   65  A    between atoms: _173  and  _176
REMARK   66  A    between atoms: _176  and  _177
REMARK   67  A    between atoms: _182  and  _184
REMARK   68  A    between atoms: _184  and  _185
REMARK   69  A    between atoms: _184  and  _187
REMARK   70  A    between atoms: _187  and  _188
REMARK   71  A    between atoms: _193  and  _195
REMARK   72  A    between atoms: _195  and  _196
REMARK   73  A    between atoms: _195  and  _198
REMARK   74  A    between atoms: _198  and  _199
REMARK   75  A    between atoms: _202  and  _204
REMARK   76  A    between atoms: _204  and  _205
REMARK   77  A    between atoms: _204  and  _207
REMARK   78  A    between atoms: _207  and  _208
REMARK   79  A    between atoms: _210  and  _212
REMARK   80  A    between atoms: _212  and  _213
REMARK   81  A    between atoms: _212  and  _215
REMARK   82  A    between atoms: _215  and  _216
REMARK   83  A    between atoms: _220  and  ZN_427
REMARK   84  A    between atoms: _221  and  _223
REMARK   85  A    between atoms: _223  and  _224
REMARK   86  A    between atoms: _223  and  _226
REMARK   87  A    between atoms: _226  and  _227
REMARK   88  A    between atoms: _229  and  _231
REMARK   89  A    between atoms: _231  and  _232
REMARK   90  A    between atoms: _231  and  _234
REMARK   91  A    between atoms: _234  and  _235
REMARK   92  A    between atoms: _239  and  ZN_427
REMARK   93  A    between atoms: _240  and  _242
REMARK   94  A    between atoms: _242  and  _243
REMARK   95  A    between atoms: _242  and  _245
REMARK   96  A    between atoms: _245  and  _246
REMARK   97  A    between atoms: _248  and  _250
REMARK   98  A    between atoms: _250  and  _251
REMARK   99  A    between atoms: _250  and  _253
REMARK  100  A    between atoms: _253  and  _254
REMARK  101  A    between atoms: _259  and  _261
REMARK  102  A    between atoms: _261  and  _262
REMARK  103  A    between atoms: _261  and  _264
REMARK  104  A    between atoms: _264  and  _265
REMARK  105  A    between atoms: _265  and  _266
REMARK  106  A    between atoms: _266  and  _267
REMARK  107  A    between atoms: _276  and  _278
REMARK  108  A    between atoms: _278  and  _279
REMARK  109  A    between atoms: _278  and  _281
REMARK  110  A    between atoms: _281  and  _282
REMARK  111  A    between atoms: _285  and  _287
REMARK  112  A    between atoms: _287  and  _288
REMARK  113  A    between atoms: _287  and  _290
REMARK  114  A    between atoms: _294  and  _295
REMARK  115  A    between atoms: _300  and  _302
REMARK  116  A    between atoms: _302  and  _303
REMARK  117  A    between atoms: _302  and  _305
REMARK  118  A    between atoms: _305  and  _306
REMARK  119  A    between atoms: _306  and  _307
REMARK  120  A    between atoms: _307  and  _308
REMARK  121  A    between atoms: _308  and  _309
REMARK  122  A    between atoms: _313  and  _315
REMARK  123  A    between atoms: _315  and  _316
REMARK  124  A    between atoms: _315  and  _318
REMARK  125  A    between atoms: _318  and  _319
REMARK  126  A    between atoms: _325  and  _327
REMARK  127  A    between atoms: _327  and  _328
REMARK  128  A    between atoms: _327  and  _330
REMARK  129  A    between atoms: _330  and  _331
REMARK  130  A    between atoms: _334  and  _336
REMARK  131  A    between atoms: _336  and  _337
REMARK  132  A    between atoms: _336  and  _339
REMARK  133  A    between atoms: _339  and  _340
REMARK  134  A    between atoms: _340  and  _341
REMARK  135  A    between atoms: _341  and  _342
REMARK  136  A    between atoms: _351  and  _353
REMARK  137  A    between atoms: _353  and  _354
REMARK  138  A    between atoms: _356  and  _358
REMARK  139  A    between atoms: _358  and  _359
REMARK  140  A    between atoms: _361  and  _363
REMARK  141  A    between atoms: _363  and  _364
REMARK  142  A    between atoms: _363  and  _366
REMARK  143  A    between atoms: _366  and  _367
REMARK  144  A    between atoms: _370  and  _372
REMARK  145  A    between atoms: _372  and  _373
REMARK  146  A    between atoms: _372  and  _375
REMARK  147  A    between atoms: _375  and  _376
REMARK  148  A    between atoms: _381  and  _382
REMARK  149  A    between atoms: _384  and  _386
REMARK  150  A    between atoms: _386  and  _387
REMARK  151  A    between atoms: _386  and  _389
REMARK  152  A    between atoms: _389  and  _390
REMARK  153  A    between atoms: _393  and  _395
REMARK  154  A    between atoms: _395  and  _396
REMARK  155  A    between atoms: _398  and  _400
REMARK  156  A    between atoms: _400  and  _401
REMARK  157  A    between atoms: _400  and  _403
REMARK  158  A    between atoms: _403  and  _404
REMARK  159  A    between atoms: _408  and  _409
REMARK  160  A    between atoms: _414  and  _416
REMARK  161  A    between atoms: _416  and  _417
REMARK  162  A    between atoms: _416  and  _419
REMARK  163  A    between atoms: _419  and  _420
REMARK                            x       y       z     vdW  Elec       q    Type
REMARK                         _______ _______ _______ _____ _____    ______ ____
ROOT
ATOM      1  O   HOH     1     -28.721  33.405  -5.704  0.00  0.00    +0.000 OA
ENDROOT
TORSDOF 0
REMARK  Name = ../refined-set-2016/3k5x/3k5x_pocket.pdb
REMARK  163 active torsions:
REMARK  status: ('A' for Active; 'I' for Inactive)
REMARK    1  A    between atoms: _1  and  _3
REMARK    2  A    between atoms: _14  and  _17
REMARK    3  A    between atoms: _17  and  _18
REMARK    4  A    between atoms: _25  and  _26
REMARK    5  A    between atoms: _32  and  _34
REMARK    6  A    between atoms: _34  and  _35
REMARK    7  A    between atoms: _34  and  _37
REMARK    8  A    between atoms: _37  and  _38
REMARK    9  A    between atoms: _48  and  _50
REMARK   10  A    between atoms: _50  and  _51
REMARK   11  A    between atoms: _54  and  _56
REMARK   12  A    between atoms: _56  and  _57
REMARK   13  A    between atoms: _56  and  _59
REMARK   14  A    between atoms: _59  and  _60
REMARK   15  A    between atoms: _62  and  _64
REMARK   16  A    between atoms: _64  and  _65
REMARK   17  A    between atoms: _64  and  _67
REMARK   18  A    between atoms: _70  and  _72
REMARK   19  A    between atoms: _72  and  _73
REMARK   20  A    between atoms: _72  and  _75
REMARK   21  A    between atoms: _75  and  _76
REMARK   22  A    between atoms: _81  and  _82
REMARK   23  A    between atoms: _84  and  _86
REMARK   24  A    between atoms: _86  and  _87
REMARK   25  A    between atoms: _86  and  _89
REMARK   26  A    between atoms: _92  and  _94
REMARK   27  A    between atoms: _94  and  _95
REMARK   28  A    between atoms: _94  and  _97
REMARK   29  A    between atoms: _97  and  _98
REMARK   30  A    between atoms: _98  and  _99
REMARK   31  A    between atoms: _99  and  _100
REMARK   32  A    between atoms: _109  and  _111
REMARK   33  A    between atoms: _111  and  _112
REMARK   34  A    between atoms: _111  and  _114
REMARK   35  A    between atoms: _114  and  _115
REMARK   36  A    between atoms: _117  and  _119
REMARK   37  A    between atoms: _119  and  _120
REMARK   38  A    between atoms: _119  and  _122
REMARK   39  A    between atoms: _122  and  _123
REMARK   40  A    between atoms: _123  and  _124
REMARK   41  A    between atoms: _129  and  _131
REMARK   42  A    between atoms: _131  and  _132
REMARK   43  A    between atoms: _131  and  _134
REMARK   44  A    between atoms: _134  and  _135
REMARK   45  A    between atoms: _135  and  _136
REMARK   46  A    between atoms: _136  and  _137
REMARK   47  A    between atoms: _136  and  _138
REMARK   48  A    between atoms: _137  and  ZN_426
REMARK   49  A    between atoms: _138  and  ZN_427
REMARK   50  A    between atoms: _139  and  _141
REMARK   51  A    between atoms: _141  and  _142
REMARK   52  A    between atoms: _141  and  _144
REMARK   53  A    between atoms: _144  and  _145
REMARK   54  A    between atoms: _150  and  _151
REMARK   55  A    between atoms: _153  and  _155
REMARK   56  A    between atoms: _155  and  _156
REMARK   57  A    between atoms: _155  and  _158
REMARK   58  A    between atoms: _158  and  _159
REMARK   59  A    between atoms: _162  and  _164
REMARK   60  A    between atoms: _164  and  _165
REMARK   61  A    between atoms: _164  and  _167
REMARK   62  A    between atoms: _167  and  _168
REMARK   63  A    between atoms: _171  and  _173
REMARK   64  A    between atoms: _173  and  _174
REMARK   65  A    between atoms: _173  and  _176
REMARK   66  A    between atoms: _176  and  _177
REMARK   67  A    between atoms: _182  and  _184
REMARK   68  A    between atoms: _184  and  _185
REMARK   69  A    between atoms: _184  and  _187
REMARK   70  A    between atoms: _187  and  _188
REMARK   71  A    between atoms: _193  and  _195
REMARK   72  A    between atoms: _195  and  _196
REMARK   73  A    between atoms: _195  and  _198
REMARK   74  A    between atoms: _198  and  _199
REMARK   75  A    between atoms: _202  and  _204
REMARK   76  A    between atoms: _204  and  _205
REMARK   77  A    between atoms: _204  and  _207
REMARK   78  A    between atoms: _207  and  _208
REMARK   79  A    between atoms: _210  and  _212
REMARK   80  A    between atoms: _212  and  _213
REMARK   81  A    between atoms: _212  and  _215
REMARK   82  A    between atoms: _215  and  _216
REMARK   83  A    between atoms: _220  and  ZN_427
REMARK   84  A    between atoms: _221  and  _223
REMARK   85  A    between atoms: _223  and  _224
REMARK   86  A    between atoms: _223  and  _226
REMARK   87  A    between atoms: _226  and  _227
REMARK   88  A    between atoms: _229  and  _231
REMARK   89  A    between atoms: _231  and  _232
REMARK   90  A    between atoms: _231  and  _234
REMARK   91  A    between atoms: _234  and  _235
REMARK   92  A    between atoms: _239  and  ZN_427
REMARK   93  A    between atoms: _240  and  _242
REMARK   94  A    between atoms: _242  and  _243
REMARK   95  A    between atoms: _242  and  _245
REMARK   96  A    between atoms: _245  and  _246
REMARK   97  A    between atoms: _248  and  _250
REMARK   98  A    between atoms: _250  and  _251
REMARK   99  A    between atoms: _250  and  _253
REMARK  100  A    between atoms: _253  and  _254
REMARK  101  A    between atoms: _259  and  _261
REMARK  102  A    between atoms: _261  and  _262
REMARK  103  A    between atoms: _261  and  _264
REMARK  104  A    between atoms: _264  and  _265
REMARK  105  A    between atoms: _265  and  _266
REMARK  106  A    between atoms: _266  and  _267
REMARK  107  A    between atoms: _276  and  _278
REMARK  108  A    between atoms: _278  and  _279
REMARK  109  A    between atoms: _278  and  _281
REMARK  110  A    between atoms: _281  and  _282
REMARK  111  A    between atoms: _285  and  _287
REMARK  112  A    between atoms: _287  and  _288
REMARK  113  A    between atoms: _287  and  _290
REMARK  114  A    between atoms: _294  and  _295
REMARK  115  A    between atoms: _300  and  _302
REMARK  116  A    between atoms: _302  and  _303
REMARK  117  A    between atoms: _302  and  _305
REMARK  118  A    between atoms: _305  and  _306
REMARK  119  A    between atoms: _306  and  _307
REMARK  120  A    between atoms: _307  and  _308
REMARK  121  A    between atoms: _308  and  _309
REMARK  122  A    between atoms: _313  and  _315
REMARK  123  A    between atoms: _315  and  _316
REMARK  124  A    between atoms: _315  and  _318
REMARK  125  A    between atoms: _318  and  _319
REMARK  126  A    between atoms: _325  and  _327
REMARK  127  A    between atoms: _327  and  _328
REMARK  128  A    between atoms: _327  and  _330
REMARK  129  A    between atoms: _330  and  _331
REMARK  130  A    between atoms: _334  and  _336
REMARK  131  A    between atoms: _336  and  _337
REMARK  132  A    between atoms: _336  and  _339
REMARK  133  A    between atoms: _339  and  _340
REMARK  134  A    between atoms: _340  and  _341
REMARK  135  A    between atoms: _341  and  _342
REMARK  136  A    between atoms: _351  and  _353
REMARK  137  A    between atoms: _353  and  _354
REMARK  138  A    between atoms: _356  and  _358
REMARK  139  A    between atoms: _358  and  _359
REMARK  140  A    between atoms: _361  and  _363
REMARK  141  A    between atoms: _363  and  _364
REMARK  142  A    between atoms: _363  and  _366
REMARK  143  A    between atoms: _366  and  _367
REMARK  144  A    between atoms: _370  and  _372
REMARK  145  A    between atoms: _372  and  _373
REMARK  146  A    between atoms: _372  and  _375
REMARK  147  A    between atoms: _375  and  _376
REMARK  148  A    between atoms: _381  and  _382
REMARK  149  A    between atoms: _384  and  _386
REMARK  150  A    between atoms: _386  and  _387
REMARK  151  A    between atoms: _386  and  _389
REMARK  152  A    between atoms: _389  and  _390
REMARK  153  A    between atoms: _393  and  _395
REMARK  154  A    between atoms: _395  and  _396
REMARK  155  A    between atoms: _398  and  _400
REMARK  156  A    between atoms: _400  and  _401
REMARK  157  A    between atoms: _400  and  _403
REMARK  158  A    between atoms: _403  and  _404
REMARK  159  A    between atoms: _408  and  _409
REMARK  160  A    between atoms: _414  and  _416
REMARK  161  A    between atoms: _416  and  _417
REMARK  162  A    between atoms: _416  and  _419
REMARK  163  A    between atoms: _419  and  _420
REMARK                            x       y       z     vdW  Elec       q    Type
REMARK                         _______ _______ _______ _____ _____    ______ ____
ROOT
ATOM      1  O   HOH     1     -20.787  33.664  -9.713  0.00  0.00    +0.000 OA
ENDROOT
TORSDOF 0
REMARK  Name = ../refined-set-2016/3k5x/3k5x_pocket.pdb
REMARK  163 active torsions:
REMARK  status: ('A' for Active; 'I' for Inactive)
REMARK    1  A    between atoms: _1  and  _3
REMARK    2  A    between atoms: _14  and  _17
REMARK    3  A    between atoms: _17  and  _18
REMARK    4  A    between atoms: _25  and  _26
REMARK    5  A    between atoms: _32  and  _34
REMARK    6  A    between atoms: _34  and  _35
REMARK    7  A    between atoms: _34  and  _37
REMARK    8  A    between atoms: _37  and  _38
REMARK    9  A    between atoms: _48  and  _50
REMARK   10  A    between atoms: _50  and  _51
REMARK   11  A    between atoms: _54  and  _56
REMARK   12  A    between atoms: _56  and  _57
REMARK   13  A    between atoms: _56  and  _59
REMARK   14  A    between atoms: _59  and  _60
REMARK   15  A    between atoms: _62  and  _64
REMARK   16  A    between atoms: _64  and  _65
REMARK   17  A    between atoms: _64  and  _67
REMARK   18  A    between atoms: _70  and  _72
REMARK   19  A    between atoms: _72  and  _73
REMARK   20  A    between atoms: _72  and  _75
REMARK   21  A    between atoms: _75  and  _76
REMARK   22  A    between atoms: _81  and  _82
REMARK   23  A    between atoms: _84  and  _86
REMARK   24  A    between atoms: _86  and  _87
REMARK   25  A    between atoms: _86  and  _89
REMARK   26  A    between atoms: _92  and  _94
REMARK   27  A    between atoms: _94  and  _95
REMARK   28  A    between atoms: _94  and  _97
REMARK   29  A    between atoms: _97  and  _98
REMARK   30  A    between atoms: _98  and  _99
REMARK   31  A    between atoms: _99  and  _100
REMARK   32  A    between atoms: _109  and  _111
REMARK   33  A    between atoms: _111  and  _112
REMARK   34  A    between atoms: _111  and  _114
REMARK   35  A    between atoms: _114  and  _115
REMARK   36  A    between atoms: _117  and  _119
REMARK   37  A    between atoms: _119  and  _120
REMARK   38  A    between atoms: _119  and  _122
REMARK   39  A    between atoms: _122  and  _123
REMARK   40  A    between atoms: _123  and  _124
REMARK   41  A    between atoms: _129  and  _131
REMARK   42  A    between atoms: _131  and  _132
REMARK   43  A    between atoms: _131  and  _134
REMARK   44  A    between atoms: _134  and  _135
REMARK   45  A    between atoms: _135  and  _136
REMARK   46  A    between atoms: _136  and  _137
REMARK   47  A    between atoms: _136  and  _138
REMARK   48  A    between atoms: _137  and  ZN_426
REMARK   49  A    between atoms: _138  and  ZN_427
REMARK   50  A    between atoms: _139  and  _141
REMARK   51  A    between atoms: _141  and  _142
REMARK   52  A    between atoms: _141  and  _144
REMARK   53  A    between atoms: _144  and  _145
REMARK   54  A    between atoms: _150  and  _151
REMARK   55  A    between atoms: _153  and  _155
REMARK   56  A    between atoms: _155  and  _156
REMARK   57  A    between atoms: _155  and  _158
REMARK   58  A    between atoms: _158  and  _159
REMARK   59  A    between atoms: _162  and  _164
REMARK   60  A    between atoms: _164  and  _165
REMARK   61  A    between atoms: _164  and  _167
REMARK   62  A    between atoms: _167  and  _168
REMARK   63  A    between atoms: _171  and  _173
REMARK   64  A    between atoms: _173  and  _174
REMARK   65  A    between atoms: _173  and  _176
REMARK   66  A    between atoms: _176  and  _177
REMARK   67  A    between atoms: _182  and  _184
REMARK   68  A    between atoms: _184  and  _185
REMARK   69  A    between atoms: _184  and  _187
REMARK   70  A    between atoms: _187  and  _188
REMARK   71  A    between atoms: _193  and  _195
REMARK   72  A    between atoms: _195  and  _196
REMARK   73  A    between atoms: _195  and  _198
REMARK   74  A    between atoms: _198  and  _199
REMARK   75  A    between atoms: _202  and  _204
REMARK   76  A    between atoms: _204  and  _205
REMARK   77  A    between atoms: _204  and  _207
REMARK   78  A    between atoms: _207  and  _208
REMARK   79  A    between atoms: _210  and  _212
REMARK   80  A    between atoms: _212  and  _213
REMARK   81  A    between atoms: _212  and  _215
REMARK   82  A    between atoms: _215  and  _216
REMARK   83  A    between atoms: _220  and  ZN_427
REMARK   84  A    between atoms: _221  and  _223
REMARK   85  A    between atoms: _223  and  _224
REMARK   86  A    between atoms: _223  and  _226
REMARK   87  A    between atoms: _226  and  _227
REMARK   88  A    between atoms: _229  and  _231
REMARK   89  A    between atoms: _231  and  _232
REMARK   90  A    between atoms: _231  and  _234
REMARK   91  A    between atoms: _234  and  _235
REMARK   92  A    between atoms: _239  and  ZN_427
REMARK   93  A    between atoms: _240  and  _242
REMARK   94  A    between atoms: _242  and  _243
REMARK   95  A    between atoms: _242  and  _245
REMARK   96  A    between atoms: _245  and  _246
REMARK   97  A    between atoms: _248  and  _250
REMARK   98  A    between atoms: _250  and  _251
REMARK   99  A    between atoms: _250  and  _253
REMARK  100  A    between atoms: _253  and  _254
REMARK  101  A    between atoms: _259  and  _261
REMARK  102  A    between atoms: _261  and  _262
REMARK  103  A    between atoms: _261  and  _264
REMARK  104  A    between atoms: _264  and  _265
REMARK  105  A    between atoms: _265  and  _266
REMARK  106  A    between atoms: _266  and  _267
REMARK  107  A    between atoms: _276  and  _278
REMARK  108  A    between atoms: _278  and  _279
REMARK  109  A    between atoms: _278  and  _281
REMARK  110  A    between atoms: _281  and  _282
REMARK  111  A    between atoms: _285  and  _287
REMARK  112  A    between atoms: _287  and  _288
REMARK  113  A    between atoms: _287  and  _290
REMARK  114  A    between atoms: _294  and  _295
REMARK  115  A    between atoms: _300  and  _302
REMARK  116  A    between atoms: _302  and  _303
REMARK  117  A    between atoms: _302  and  _305
REMARK  118  A    between atoms: _305  and  _306
REMARK  119  A    between atoms: _306  and  _307
REMARK  120  A    between atoms: _307  and  _308
REMARK  121  A    between atoms: _308  and  _309
REMARK  122  A    between atoms: _313  and  _315
REMARK  123  A    between atoms: _315  and  _316
REMARK  124  A    between atoms: _315  and  _318
REMARK  125  A    between atoms: _318  and  _319
REMARK  126  A    between atoms: _325  and  _327
REMARK  127  A    between atoms: _327  and  _328
REMARK  128  A    between atoms: _327  and  _330
REMARK  129  A    between atoms: _330  and  _331
REMARK  130  A    between atoms: _334  and  _336
REMARK  131  A    between atoms: _336  and  _337
REMARK  132  A    between atoms: _336  and  _339
REMARK  133  A    between atoms: _339  and  _340
REMARK  134  A    between atoms: _340  and  _341
REMARK  135  A    between atoms: _341  and  _342
REMARK  136  A    between atoms: _351  and  _353
REMARK  137  A    between atoms: _353  and  _354
REMARK  138  A    between atoms: _356  and  _358
REMARK  139  A    between atoms: _358  and  _359
REMARK  140  A    between atoms: _361  and  _363
REMARK  141  A    between atoms: _363  and  _364
REMARK  142  A    between atoms: _363  and  _366
REMARK  143  A    between atoms: _366  and  _367
REMARK  144  A    between atoms: _370  and  _372
REMARK  145  A    between atoms: _372  and  _373
REMARK  146  A    between atoms: _372  and  _375
REMARK  147  A    between atoms: _375  and  _376
REMARK  148  A    between atoms: _381  and  _382
REMARK  149  A    between atoms: _384  and  _386
REMARK  150  A    between atoms: _386  and  _387
REMARK  151  A    between atoms: _386  and  _389
REMARK  152  A    between atoms: _389  and  _390
REMARK  153  A    between atoms: _393  and  _395
REMARK  154  A    between atoms: _395  and  _396
REMARK  155  A    between atoms: _398  and  _400
REMARK  156  A    between atoms: _400  and  _401
REMARK  157  A    between atoms: _400  and  _403
REMARK  158  A    between atoms: _403  and  _404
REMARK  159  A    between atoms: _408  and  _409
REMARK  160  A    between atoms: _414  and  _416
REMARK  161  A    between atoms: _416  and  _417
REMARK  162  A    between atoms: _416  and  _419
REMARK  163  A    between atoms: _419  and  _420
REMARK                            x       y       z     vdW  Elec       q    Type
REMARK                         _______ _______ _______ _____ _____    ______ ____
ROOT
ATOM      1  O   HOH     1     -33.903  31.700 -11.925  0.00  0.00    +0.000 OA
ENDROOT
TORSDOF 0
REMARK  Name = ../refined-set-2016/3k5x/3k5x_pocket.pdb
REMARK  163 active torsions:
REMARK  status: ('A' for Active; 'I' for Inactive)
REMARK    1  A    between atoms: _1  and  _3
REMARK    2  A    between atoms: _14  and  _17
REMARK    3  A    between atoms: _17  and  _18
REMARK    4  A    between atoms: _25  and  _26
REMARK    5  A    between atoms: _32  and  _34
REMARK    6  A    between atoms: _34  and  _35
REMARK    7  A    between atoms: _34  and  _37
REMARK    8  A    between atoms: _37  and  _38
REMARK    9  A    between atoms: _48  and  _50
REMARK   10  A    between atoms: _50  and  _51
REMARK   11  A    between atoms: _54  and  _56
REMARK   12  A    between atoms: _56  and  _57
REMARK   13  A    between atoms: _56  and  _59
REMARK   14  A    between atoms: _59  and  _60
REMARK   15  A    between atoms: _62  and  _64
REMARK   16  A    between atoms: _64  and  _65
REMARK   17  A    between atoms: _64  and  _67
REMARK   18  A    between atoms: _70  and  _72
REMARK   19  A    between atoms: _72  and  _73
REMARK   20  A    between atoms: _72  and  _75
REMARK   21  A    between atoms: _75  and  _76
REMARK   22  A    between atoms: _81  and  _82
REMARK   23  A    between atoms: _84  and  _86
REMARK   24  A    between atoms: _86  and  _87
REMARK   25  A    between atoms: _86  and  _89
REMARK   26  A    between atoms: _92  and  _94
REMARK   27  A    between atoms: _94  and  _95
REMARK   28  A    between atoms: _94  and  _97
REMARK   29  A    between atoms: _97  and  _98
REMARK   30  A    between atoms: _98  and  _99
REMARK   31  A    between atoms: _99  and  _100
REMARK   32  A    between atoms: _109  and  _111
REMARK   33  A    between atoms: _111  and  _112
REMARK   34  A    between atoms: _111  and  _114
REMARK   35  A    between atoms: _114  and  _115
REMARK   36  A    between atoms: _117  and  _119
REMARK   37  A    between atoms: _119  and  _120
REMARK   38  A    between atoms: _119  and  _122
REMARK   39  A    between atoms: _122  and  _123
REMARK   40  A    between atoms: _123  and  _124
REMARK   41  A    between atoms: _129  and  _131
REMARK   42  A    between atoms: _131  and  _132
REMARK   43  A    between atoms: _131  and  _134
REMARK   44  A    between atoms: _134  and  _135
REMARK   45  A    between atoms: _135  and  _136
REMARK   46  A    between atoms: _136  and  _137
REMARK   47  A    between atoms: _136  and  _138
REMARK   48  A    between atoms: _137  and  ZN_426
REMARK   49  A    between atoms: _138  and  ZN_427
REMARK   50  A    between atoms: _139  and  _141
REMARK   51  A    between atoms: _141  and  _142
REMARK   52  A    between atoms: _141  and  _144
REMARK   53  A    between atoms: _144  and  _145
REMARK   54  A    between atoms: _150  and  _151
REMARK   55  A    between atoms: _153  and  _155
REMARK   56  A    between atoms: _155  and  _156
REMARK   57  A    between atoms: _155  and  _158
REMARK   58  A    between atoms: _158  and  _159
REMARK   59  A    between atoms: _162  and  _164
REMARK   60  A    between atoms: _164  and  _165
REMARK   61  A    between atoms: _164  and  _167
REMARK   62  A    between atoms: _167  and  _168
REMARK   63  A    between atoms: _171  and  _173
REMARK   64  A    between atoms: _173  and  _174
REMARK   65  A    between atoms: _173  and  _176
REMARK   66  A    between atoms: _176  and  _177
REMARK   67  A    between atoms: _182  and  _184
REMARK   68  A    between atoms: _184  and  _185
REMARK   69  A    between atoms: _184  and  _187
REMARK   70  A    between atoms: _187  and  _188
REMARK   71  A    between atoms: _193  and  _195
REMARK   72  A    between atoms: _195  and  _196
REMARK   73  A    between atoms: _195  and  _198
REMARK   74  A    between atoms: _198  and  _199
REMARK   75  A    between atoms: _202  and  _204
REMARK   76  A    between atoms: _204  and  _205
REMARK   77  A    between atoms: _204  and  _207
REMARK   78  A    between atoms: _207  and  _208
REMARK   79  A    between atoms: _210  and  _212
REMARK   80  A    between atoms: _212  and  _213
REMARK   81  A    between atoms: _212  and  _215
REMARK   82  A    between atoms: _215  and  _216
REMARK   83  A    between atoms: _220  and  ZN_427
REMARK   84  A    between atoms: _221  and  _223
REMARK   85  A    between atoms: _223  and  _224
REMARK   86  A    between atoms: _223  and  _226
REMARK   87  A    between atoms: _226  and  _227
REMARK   88  A    between atoms: _229  and  _231
REMARK   89  A    between atoms: _231  and  _232
REMARK   90  A    between atoms: _231  and  _234
REMARK   91  A    between atoms: _234  and  _235
REMARK   92  A    between atoms: _239  and  ZN_427
REMARK   93  A    between atoms: _240  and  _242
REMARK   94  A    between atoms: _242  and  _243
REMARK   95  A    between atoms: _242  and  _245
REMARK   96  A    between atoms: _245  and  _246
REMARK   97  A    between atoms: _248  and  _250
REMARK   98  A    between atoms: _250  and  _251
REMARK   99  A    between atoms: _250  and  _253
REMARK  100  A    between atoms: _253  and  _254
REMARK  101  A    between atoms: _259  and  _261
REMARK  102  A    between atoms: _261  and  _262
REMARK  103  A    between atoms: _261  and  _264
REMARK  104  A    between atoms: _264  and  _265
REMARK  105  A    between atoms: _265  and  _266
REMARK  106  A    between atoms: _266  and  _267
REMARK  107  A    between atoms: _276  and  _278
REMARK  108  A    between atoms: _278  and  _279
REMARK  109  A    between atoms: _278  and  _281
REMARK  110  A    between atoms: _281  and  _282
REMARK  111  A    between atoms: _285  and  _287
REMARK  112  A    between atoms: _287  and  _288
REMARK  113  A    between atoms: _287  and  _290
REMARK  114  A    between atoms: _294  and  _295
REMARK  115  A    between atoms: _300  and  _302
REMARK  116  A    between atoms: _302  and  _303
REMARK  117  A    between atoms: _302  and  _305
REMARK  118  A    between atoms: _305  and  _306
REMARK  119  A    between atoms: _306  and  _307
REMARK  120  A    between atoms: _307  and  _308
REMARK  121  A    between atoms: _308  and  _309
REMARK  122  A    between atoms: _313  and  _315
REMARK  123  A    between atoms: _315  and  _316
REMARK  124  A    between atoms: _315  and  _318
REMARK  125  A    between atoms: _318  and  _319
REMARK  126  A    between atoms: _325  and  _327
REMARK  127  A    between atoms: _327  and  _328
REMARK  128  A    between atoms: _327  and  _330
REMARK  129  A    between atoms: _330  and  _331
REMARK  130  A    between atoms: _334  and  _336
REMARK  131  A    between atoms: _336  and  _337
REMARK  132  A    between atoms: _336  and  _339
REMARK  133  A    between atoms: _339  and  _340
REMARK  134  A    between atoms: _340  and  _341
REMARK  135  A    between atoms: _341  and  _342
REMARK  136  A    between atoms: _351  and  _353
REMARK  137  A    between atoms: _353  and  _354
REMARK  138  A    between atoms: _356  and  _358
REMARK  139  A    between atoms: _358  and  _359
REMARK  140  A    between atoms: _361  and  _363
REMARK  141  A    between atoms: _363  and  _364
REMARK  142  A    between atoms: _363  and  _366
REMARK  143  A    between atoms: _366  and  _367
REMARK  144  A    between atoms: _370  and  _372
REMARK  145  A    between atoms: _372  and  _373
REMARK  146  A    between atoms: _372  and  _375
REMARK  147  A    between atoms: _375  and  _376
REMARK  148  A    between atoms: _381  and  _382
REMARK  149  A    between atoms: _384  and  _386
REMARK  150  A    between atoms: _386  and  _387
REMARK  151  A    between atoms: _386  and  _389
REMARK  152  A    between atoms: _389  and  _390
REMARK  153  A    between atoms: _393  and  _395
REMARK  154  A    between atoms: _395  and  _396
REMARK  155  A    between atoms: _398  and  _400
REMARK  156  A    between atoms: _400  and  _401
REMARK  157  A    between atoms: _400  and  _403
REMARK  158  A    between atoms: _403  and  _404
REMARK  159  A    between atoms: _408  and  _409
REMARK  160  A    between atoms: _414  and  _416
REMARK  161  A    between atoms: _416  and  _417
REMARK  162  A    between atoms: _416  and  _419
REMARK  163  A    between atoms: _419  and  _420
REMARK                            x       y       z     vdW  Elec       q    Type
REMARK                         _______ _______ _______ _____ _____    ______ ____
ROOT
ATOM      1  O   HOH     1     -31.149  35.788 -12.839  0.00  0.00    +0.000 OA
ENDROOT
TORSDOF 0
REMARK  Name = ../refined-set-2016/3k5x/3k5x_pocket.pdb
REMARK  163 active torsions:
REMARK  status: ('A' for Active; 'I' for Inactive)
REMARK    1  A    between atoms: _1  and  _3
REMARK    2  A    between atoms: _14  and  _17
REMARK    3  A    between atoms: _17  and  _18
REMARK    4  A    between atoms: _25  and  _26
REMARK    5  A    between atoms: _32  and  _34
REMARK    6  A    between atoms: _34  and  _35
REMARK    7  A    between atoms: _34  and  _37
REMARK    8  A    between atoms: _37  and  _38
REMARK    9  A    between atoms: _48  and  _50
REMARK   10  A    between atoms: _50  and  _51
REMARK   11  A    between atoms: _54  and  _56
REMARK   12  A    between atoms: _56  and  _57
REMARK   13  A    between atoms: _56  and  _59
REMARK   14  A    between atoms: _59  and  _60
REMARK   15  A    between atoms: _62  and  _64
REMARK   16  A    between atoms: _64  and  _65
REMARK   17  A    between atoms: _64  and  _67
REMARK   18  A    between atoms: _70  and  _72
REMARK   19  A    between atoms: _72  and  _73
REMARK   20  A    between atoms: _72  and  _75
REMARK   21  A    between atoms: _75  and  _76
REMARK   22  A    between atoms: _81  and  _82
REMARK   23  A    between atoms: _84  and  _86
REMARK   24  A    between atoms: _86  and  _87
REMARK   25  A    between atoms: _86  and  _89
REMARK   26  A    between atoms: _92  and  _94
REMARK   27  A    between atoms: _94  and  _95
REMARK   28  A    between atoms: _94  and  _97
REMARK   29  A    between atoms: _97  and  _98
REMARK   30  A    between atoms: _98  and  _99
REMARK   31  A    between atoms: _99  and  _100
REMARK   32  A    between atoms: _109  and  _111
REMARK   33  A    between atoms: _111  and  _112
REMARK   34  A    between atoms: _111  and  _114
REMARK   35  A    between atoms: _114  and  _115
REMARK   36  A    between atoms: _117  and  _119
REMARK   37  A    between atoms: _119  and  _120
REMARK   38  A    between atoms: _119  and  _122
REMARK   39  A    between atoms: _122  and  _123
REMARK   40  A    between atoms: _123  and  _124
REMARK   41  A    between atoms: _129  and  _131
REMARK   42  A    between atoms: _131  and  _132
REMARK   43  A    between atoms: _131  and  _134
REMARK   44  A    between atoms: _134  and  _135
REMARK   45  A    between atoms: _135  and  _136
REMARK   46  A    between atoms: _136  and  _137
REMARK   47  A    between atoms: _136  and  _138
REMARK   48  A    between atoms: _137  and  ZN_426
REMARK   49  A    between atoms: _138  and  ZN_427
REMARK   50  A    between atoms: _139  and  _141
REMARK   51  A    between atoms: _141  and  _142
REMARK   52  A    between atoms: _141  and  _144
REMARK   53  A    between atoms: _144  and  _145
REMARK   54  A    between atoms: _150  and  _151
REMARK   55  A    between atoms: _153  and  _155
REMARK   56  A    between atoms: _155  and  _156
REMARK   57  A    between atoms: _155  and  _158
REMARK   58  A    between atoms: _158  and  _159
REMARK   59  A    between atoms: _162  and  _164
REMARK   60  A    between atoms: _164  and  _165
REMARK   61  A    between atoms: _164  and  _167
REMARK   62  A    between atoms: _167  and  _168
REMARK   63  A    between atoms: _171  and  _173
REMARK   64  A    between atoms: _173  and  _174
REMARK   65  A    between atoms: _173  and  _176
REMARK   66  A    between atoms: _176  and  _177
REMARK   67  A    between atoms: _182  and  _184
REMARK   68  A    between atoms: _184  and  _185
REMARK   69  A    between atoms: _184  and  _187
REMARK   70  A    between atoms: _187  and  _188
REMARK   71  A    between atoms: _193  and  _195
REMARK   72  A    between atoms: _195  and  _196
REMARK   73  A    between atoms: _195  and  _198
REMARK   74  A    between atoms: _198  and  _199
REMARK   75  A    between atoms: _202  and  _204
REMARK   76  A    between atoms: _204  and  _205
REMARK   77  A    between atoms: _204  and  _207
REMARK   78  A    between atoms: _207  and  _208
REMARK   79  A    between atoms: _210  and  _212
REMARK   80  A    between atoms: _212  and  _213
REMARK   81  A    between atoms: _212  and  _215
REMARK   82  A    between atoms: _215  and  _216
REMARK   83  A    between atoms: _220  and  ZN_427
REMARK   84  A    between atoms: _221  and  _223
REMARK   85  A    between atoms: _223  and  _224
REMARK   86  A    between atoms: _223  and  _226
REMARK   87  A    between atoms: _226  and  _227
REMARK   88  A    between atoms: _229  and  _231
REMARK   89  A    between atoms: _231  and  _232
REMARK   90  A    between atoms: _231  and  _234
REMARK   91  A    between atoms: _234  and  _235
REMARK   92  A    between atoms: _239  and  ZN_427
REMARK   93  A    between atoms: _240  and  _242
REMARK   94  A    between atoms: _242  and  _243
REMARK   95  A    between atoms: _242  and  _245
REMARK   96  A    between atoms: _245  and  _246
REMARK   97  A    between atoms: _248  and  _250
REMARK   98  A    between atoms: _250  and  _251
REMARK   99  A    between atoms: _250  and  _253
REMARK  100  A    between atoms: _253  and  _254
REMARK  101  A    between atoms: _259  and  _261
REMARK  102  A    between atoms: _261  and  _262
REMARK  103  A    between atoms: _261  and  _264
REMARK  104  A    between atoms: _264  and  _265
REMARK  105  A    between atoms: _265  and  _266
REMARK  106  A    between atoms: _266  and  _267
REMARK  107  A    between atoms: _276  and  _278
REMARK  108  A    between atoms: _278  and  _279
REMARK  109  A    between atoms: _278  and  _281
REMARK  110  A    between atoms: _281  and  _282
REMARK  111  A    between atoms: _285  and  _287
REMARK  112  A    between atoms: _287  and  _288
REMARK  113  A    between atoms: _287  and  _290
REMARK  114  A    between atoms: _294  and  _295
REMARK  115  A    between atoms: _300  and  _302
REMARK  116  A    between atoms: _302  and  _303
REMARK  117  A    between atoms: _302  and  _305
REMARK  118  A    between atoms: _305  and  _306
REMARK  119  A    between atoms: _306  and  _307
REMARK  120  A    between atoms: _307  and  _308
REMARK  121  A    between atoms: _308  and  _309
REMARK  122  A    between atoms: _313  and  _315
REMARK  123  A    between atoms: _315  and  _316
REMARK  124  A    between atoms: _315  and  _318
REMARK  125  A    between atoms: _318  and  _319
REMARK  126  A    between atoms: _325  and  _327
REMARK  127  A    between atoms: _327  and  _328
REMARK  128  A    between atoms: _327  and  _330
REMARK  129  A    between atoms: _330  and  _331
REMARK  130  A    between atoms: _334  and  _336
REMARK  131  A    between atoms: _336  and  _337
REMARK  132  A    between atoms: _336  and  _339
REMARK  133  A    between atoms: _339  and  _340
REMARK  134  A    between atoms: _340  and  _341
REMARK  135  A    between atoms: _341  and  _342
REMARK  136  A    between atoms: _351  and  _353
REMARK  137  A    between atoms: _353  and  _354
REMARK  138  A    between atoms: _356  and  _358
REMARK  139  A    between atoms: _358  and  _359
REMARK  140  A    between atoms: _361  and  _363
REMARK  141  A    between atoms: _363  and  _364
REMARK  142  A    between atoms: _363  and  _366
REMARK  143  A    between atoms: _366  and  _367
REMARK  144  A    between atoms: _370  and  _372
REMARK  145  A    between atoms: _372  and  _373
REMARK  146  A    between atoms: _372  and  _375
REMARK  147  A    between atoms: _375  and  _376
REMARK  148  A    between atoms: _381  and  _382
REMARK  149  A    between atoms: _384  and  _386
REMARK  150  A    between atoms: _386  and  _387
REMARK  151  A    between atoms: _386  and  _389
REMARK  152  A    between atoms: _389  and  _390
REMARK  153  A    between atoms: _393  and  _395
REMARK  154  A    between atoms: _395  and  _396
REMARK  155  A    between atoms: _398  and  _400
REMARK  156  A    between atoms: _400  and  _401
REMARK  157  A    between atoms: _400  and  _403
REMARK  158  A    between atoms: _403  and  _404
REMARK  159  A    between atoms: _408  and  _409
REMARK  160  A    between atoms: _414  and  _416
REMARK  161  A    between atoms: _416  and  _417
REMARK  162  A    between atoms: _416  and  _419
REMARK  163  A    between atoms: _419  and  _420
REMARK                            x       y       z     vdW  Elec       q    Type
REMARK                         _______ _______ _______ _____ _____    ______ ____
ROOT
ATOM      1  O   HOH     1     -34.845  35.691  -9.480  0.00  0.00    +0.000 OA
ENDROOT
TORSDOF 0
REMARK  Name = ../refined-set-2016/3k5x/3k5x_pocket.pdb
REMARK  163 active torsions:
REMARK  status: ('A' for Active; 'I' for Inactive)
REMARK    1  A    between atoms: _1  and  _3
REMARK    2  A    between atoms: _14  and  _17
REMARK    3  A    between atoms: _17  and  _18
REMARK    4  A    between atoms: _25  and  _26
REMARK    5  A    between atoms: _32  and  _34
REMARK    6  A    between atoms: _34  and  _35
REMARK    7  A    between atoms: _34  and  _37
REMARK    8  A    between atoms: _37  and  _38
REMARK    9  A    between atoms: _48  and  _50
REMARK   10  A    between atoms: _50  and  _51
REMARK   11  A    between atoms: _54  and  _56
REMARK   12  A    between atoms: _56  and  _57
REMARK   13  A    between atoms: _56  and  _59
REMARK   14  A    between atoms: _59  and  _60
REMARK   15  A    between atoms: _62  and  _64
REMARK   16  A    between atoms: _64  and  _65
REMARK   17  A    between atoms: _64  and  _67
REMARK   18  A    between atoms: _70  and  _72
REMARK   19  A    between atoms: _72  and  _73
REMARK   20  A    between atoms: _72  and  _75
REMARK   21  A    between atoms: _75  and  _76
REMARK   22  A    between atoms: _81  and  _82
REMARK   23  A    between atoms: _84  and  _86
REMARK   24  A    between atoms: _86  and  _87
REMARK   25  A    between atoms: _86  and  _89
REMARK   26  A    between atoms: _92  and  _94
REMARK   27  A    between atoms: _94  and  _95
REMARK   28  A    between atoms: _94  and  _97
REMARK   29  A    between atoms: _97  and  _98
REMARK   30  A    between atoms: _98  and  _99
REMARK   31  A    between atoms: _99  and  _100
REMARK   32  A    between atoms: _109  and  _111
REMARK   33  A    between atoms: _111  and  _112
REMARK   34  A    between atoms: _111  and  _114
REMARK   35  A    between atoms: _114  and  _115
REMARK   36  A    between atoms: _117  and  _119
REMARK   37  A    between atoms: _119  and  _120
REMARK   38  A    between atoms: _119  and  _122
REMARK   39  A    between atoms: _122  and  _123
REMARK   40  A    between atoms: _123  and  _124
REMARK   41  A    between atoms: _129  and  _131
REMARK   42  A    between atoms: _131  and  _132
REMARK   43  A    between atoms: _131  and  _134
REMARK   44  A    between atoms: _134  and  _135
REMARK   45  A    between atoms: _135  and  _136
REMARK   46  A    between atoms: _136  and  _137
REMARK   47  A    between atoms: _136  and  _138
REMARK   48  A    between atoms: _137  and  ZN_426
REMARK   49  A    between atoms: _138  and  ZN_427
REMARK   50  A    between atoms: _139  and  _141
REMARK   51  A    between atoms: _141  and  _142
REMARK   52  A    between atoms: _141  and  _144
REMARK   53  A    between atoms: _144  and  _145
REMARK   54  A    between atoms: _150  and  _151
REMARK   55  A    between atoms: _153  and  _155
REMARK   56  A    between atoms: _155  and  _156
REMARK   57  A    between atoms: _155  and  _158
REMARK   58  A    between atoms: _158  and  _159
REMARK   59  A    between atoms: _162  and  _164
REMARK   60  A    between atoms: _164  and  _165
REMARK   61  A    between atoms: _164  and  _167
REMARK   62  A    between atoms: _167  and  _168
REMARK   63  A    between atoms: _171  and  _173
REMARK   64  A    between atoms: _173  and  _174
REMARK   65  A    between atoms: _173  and  _176
REMARK   66  A    between atoms: _176  and  _177
REMARK   67  A    between atoms: _182  and  _184
REMARK   68  A    between atoms: _184  and  _185
REMARK   69  A    between atoms: _184  and  _187
REMARK   70  A    between atoms: _187  and  _188
REMARK   71  A    between atoms: _193  and  _195
REMARK   72  A    between atoms: _195  and  _196
REMARK   73  A    between atoms: _195  and  _198
REMARK   74  A    between atoms: _198  and  _199
REMARK   75  A    between atoms: _202  and  _204
REMARK   76  A    between atoms: _204  and  _205
REMARK   77  A    between atoms: _204  and  _207
REMARK   78  A    between atoms: _207  and  _208
REMARK   79  A    between atoms: _210  and  _212
REMARK   80  A    between atoms: _212  and  _213
REMARK   81  A    between atoms: _212  and  _215
REMARK   82  A    between atoms: _215  and  _216
REMARK   83  A    between atoms: _220  and  ZN_427
REMARK   84  A    between atoms: _221  and  _223
REMARK   85  A    between atoms: _223  and  _224
REMARK   86  A    between atoms: _223  and  _226
REMARK   87  A    between atoms: _226  and  _227
REMARK   88  A    between atoms: _229  and  _231
REMARK   89  A    between atoms: _231  and  _232
REMARK   90  A    between atoms: _231  and  _234
REMARK   91  A    between atoms: _234  and  _235
REMARK   92  A    between atoms: _239  and  ZN_427
REMARK   93  A    between atoms: _240  and  _242
REMARK   94  A    between atoms: _242  and  _243
REMARK   95  A    between atoms: _242  and  _245
REMARK   96  A    between atoms: _245  and  _246
REMARK   97  A    between atoms: _248  and  _250
REMARK   98  A    between atoms: _250  and  _251
REMARK   99  A    between atoms: _250  and  _253
REMARK  100  A    between atoms: _253  and  _254
REMARK  101  A    between atoms: _259  and  _261
REMARK  102  A    between atoms: _261  and  _262
REMARK  103  A    between atoms: _261  and  _264
REMARK  104  A    between atoms: _264  and  _265
REMARK  105  A    between atoms: _265  and  _266
REMARK  106  A    between atoms: _266  and  _267
REMARK  107  A    between atoms: _276  and  _278
REMARK  108  A    between atoms: _278  and  _279
REMARK  109  A    between atoms: _278  and  _281
REMARK  110  A    between atoms: _281  and  _282
REMARK  111  A    between atoms: _285  and  _287
REMARK  112  A    between atoms: _287  and  _288
REMARK  113  A    between atoms: _287  and  _290
REMARK  114  A    between atoms: _294  and  _295
REMARK  115  A    between atoms: _300  and  _302
REMARK  116  A    between atoms: _302  and  _303
REMARK  117  A    between atoms: _302  and  _305
REMARK  118  A    between atoms: _305  and  _306
REMARK  119  A    between atoms: _306  and  _307
REMARK  120  A    between atoms: _307  and  _308
REMARK  121  A    between atoms: _308  and  _309
REMARK  122  A    between atoms: _313  and  _315
REMARK  123  A    between atoms: _315  and  _316
REMARK  124  A    between atoms: _315  and  _318
REMARK  125  A    between atoms: _318  and  _319
REMARK  126  A    between atoms: _325  and  _327
REMARK  127  A    between atoms: _327  and  _328
REMARK  128  A    between atoms: _327  and  _330
REMARK  129  A    between atoms: _330  and  _331
REMARK  130  A    between atoms: _334  and  _336
REMARK  131  A    between atoms: _336  and  _337
REMARK  132  A    between atoms: _336  and  _339
REMARK  133  A    between atoms: _339  and  _340
REMARK  134  A    between atoms: _340  and  _341
REMARK  135  A    between atoms: _341  and  _342
REMARK  136  A    between atoms: _351  and  _353
REMARK  137  A    between atoms: _353  and  _354
REMARK  138  A    between atoms: _356  and  _358
REMARK  139  A    between atoms: _358  and  _359
REMARK  140  A    between atoms: _361  and  _363
REMARK  141  A    between atoms: _363  and  _364
REMARK  142  A    between atoms: _363  and  _366
REMARK  143  A    between atoms: _366  and  _367
REMARK  144  A    between atoms: _370  and  _372
REMARK  145  A    between atoms: _372  and  _373
REMARK  146  A    between atoms: _372  and  _375
REMARK  147  A    between atoms: _375  and  _376
REMARK  148  A    between atoms: _381  and  _382
REMARK  149  A    between atoms: _384  and  _386
REMARK  150  A    between atoms: _386  and  _387
REMARK  151  A    between atoms: _386  and  _389
REMARK  152  A    between atoms: _389  and  _390
REMARK  153  A    between atoms: _393  and  _395
REMARK  154  A    between atoms: _395  and  _396
REMARK  155  A    between atoms: _398  and  _400
REMARK  156  A    between atoms: _400  and  _401
REMARK  157  A    between atoms: _400  and  _403
REMARK  158  A    between atoms: _403  and  _404
REMARK  159  A    between atoms: _408  and  _409
REMARK  160  A    between atoms: _414  and  _416
REMARK  161  A    between atoms: _416  and  _417
REMARK  162  A    between atoms: _416  and  _419
REMARK  163  A    between atoms: _419  and  _420
REMARK                            x       y       z     vdW  Elec       q    Type
REMARK                         _______ _______ _______ _____ _____    ______ ____
ROOT
ATOM      1  O   HOH     1     -31.097  35.008  -4.507  0.00  0.00    +0.000 OA
ENDROOT
TORSDOF 0
REMARK  Name = ../refined-set-2016/3k5x/3k5x_pocket.pdb
REMARK  163 active torsions:
REMARK  status: ('A' for Active; 'I' for Inactive)
REMARK    1  A    between atoms: _1  and  _3
REMARK    2  A    between atoms: _14  and  _17
REMARK    3  A    between atoms: _17  and  _18
REMARK    4  A    between atoms: _25  and  _26
REMARK    5  A    between atoms: _32  and  _34
REMARK    6  A    between atoms: _34  and  _35
REMARK    7  A    between atoms: _34  and  _37
REMARK    8  A    between atoms: _37  and  _38
REMARK    9  A    between atoms: _48  and  _50
REMARK   10  A    between atoms: _50  and  _51
REMARK   11  A    between atoms: _54  and  _56
REMARK   12  A    between atoms: _56  and  _57
REMARK   13  A    between atoms: _56  and  _59
REMARK   14  A    between atoms: _59  and  _60
REMARK   15  A    between atoms: _62  and  _64
REMARK   16  A    between atoms: _64  and  _65
REMARK   17  A    between atoms: _64  and  _67
REMARK   18  A    between atoms: _70  and  _72
REMARK   19  A    between atoms: _72  and  _73
REMARK   20  A    between atoms: _72  and  _75
REMARK   21  A    between atoms: _75  and  _76
REMARK   22  A    between atoms: _81  and  _82
REMARK   23  A    between atoms: _84  and  _86
REMARK   24  A    between atoms: _86  and  _87
REMARK   25  A    between atoms: _86  and  _89
REMARK   26  A    between atoms: _92  and  _94
REMARK   27  A    between atoms: _94  and  _95
REMARK   28  A    between atoms: _94  and  _97
REMARK   29  A    between atoms: _97  and  _98
REMARK   30  A    between atoms: _98  and  _99
REMARK   31  A    between atoms: _99  and  _100
REMARK   32  A    between atoms: _109  and  _111
REMARK   33  A    between atoms: _111  and  _112
REMARK   34  A    between atoms: _111  and  _114
REMARK   35  A    between atoms: _114  and  _115
REMARK   36  A    between atoms: _117  and  _119
REMARK   37  A    between atoms: _119  and  _120
REMARK   38  A    between atoms: _119  and  _122
REMARK   39  A    between atoms: _122  and  _123
REMARK   40  A    between atoms: _123  and  _124
REMARK   41  A    between atoms: _129  and  _131
REMARK   42  A    between atoms: _131  and  _132
REMARK   43  A    between atoms: _131  and  _134
REMARK   44  A    between atoms: _134  and  _135
REMARK   45  A    between atoms: _135  and  _136
REMARK   46  A    between atoms: _136  and  _137
REMARK   47  A    between atoms: _136  and  _138
REMARK   48  A    between atoms: _137  and  ZN_426
REMARK   49  A    between atoms: _138  and  ZN_427
REMARK   50  A    between atoms: _139  and  _141
REMARK   51  A    between atoms: _141  and  _142
REMARK   52  A    between atoms: _141  and  _144
REMARK   53  A    between atoms: _144  and  _145
REMARK   54  A    between atoms: _150  and  _151
REMARK   55  A    between atoms: _153  and  _155
REMARK   56  A    between atoms: _155  and  _156
REMARK   57  A    between atoms: _155  and  _158
REMARK   58  A    between atoms: _158  and  _159
REMARK   59  A    between atoms: _162  and  _164
REMARK   60  A    between atoms: _164  and  _165
REMARK   61  A    between atoms: _164  and  _167
REMARK   62  A    between atoms: _167  and  _168
REMARK   63  A    between atoms: _171  and  _173
REMARK   64  A    between atoms: _173  and  _174
REMARK   65  A    between atoms: _173  and  _176
REMARK   66  A    between atoms: _176  and  _177
REMARK   67  A    between atoms: _182  and  _184
REMARK   68  A    between atoms: _184  and  _185
REMARK   69  A    between atoms: _184  and  _187
REMARK   70  A    between atoms: _187  and  _188
REMARK   71  A    between atoms: _193  and  _195
REMARK   72  A    between atoms: _195  and  _196
REMARK   73  A    between atoms: _195  and  _198
REMARK   74  A    between atoms: _198  and  _199
REMARK   75  A    between atoms: _202  and  _204
REMARK   76  A    between atoms: _204  and  _205
REMARK   77  A    between atoms: _204  and  _207
REMARK   78  A    between atoms: _207  and  _208
REMARK   79  A    between atoms: _210  and  _212
REMARK   80  A    between atoms: _212  and  _213
REMARK   81  A    between atoms: _212  and  _215
REMARK   82  A    between atoms: _215  and  _216
REMARK   83  A    between atoms: _220  and  ZN_427
REMARK   84  A    between atoms: _221  and  _223
REMARK   85  A    between atoms: _223  and  _224
REMARK   86  A    between atoms: _223  and  _226
REMARK   87  A    between atoms: _226  and  _227
REMARK   88  A    between atoms: _229  and  _231
REMARK   89  A    between atoms: _231  and  _232
REMARK   90  A    between atoms: _231  and  _234
REMARK   91  A    between atoms: _234  and  _235
REMARK   92  A    between atoms: _239  and  ZN_427
REMARK   93  A    between atoms: _240  and  _242
REMARK   94  A    between atoms: _242  and  _243
REMARK   95  A    between atoms: _242  and  _245
REMARK   96  A    between atoms: _245  and  _246
REMARK   97  A    between atoms: _248  and  _250
REMARK   98  A    between atoms: _250  and  _251
REMARK   99  A    between atoms: _250  and  _253
REMARK  100  A    between atoms: _253  and  _254
REMARK  101  A    between atoms: _259  and  _261
REMARK  102  A    between atoms: _261  and  _262
REMARK  103  A    between atoms: _261  and  _264
REMARK  104  A    between atoms: _264  and  _265
REMARK  105  A    between atoms: _265  and  _266
REMARK  106  A    between atoms: _266  and  _267
REMARK  107  A    between atoms: _276  and  _278
REMARK  108  A    between atoms: _278  and  _279
REMARK  109  A    between atoms: _278  and  _281
REMARK  110  A    between atoms: _281  and  _282
REMARK  111  A    between atoms: _285  and  _287
REMARK  112  A    between atoms: _287  and  _288
REMARK  113  A    between atoms: _287  and  _290
REMARK  114  A    between atoms: _294  and  _295
REMARK  115  A    between atoms: _300  and  _302
REMARK  116  A    between atoms: _302  and  _303
REMARK  117  A    between atoms: _302  and  _305
REMARK  118  A    between atoms: _305  and  _306
REMARK  119  A    between atoms: _306  and  _307
REMARK  120  A    between atoms: _307  and  _308
REMARK  121  A    between atoms: _308  and  _309
REMARK  122  A    between atoms: _313  and  _315
REMARK  123  A    between atoms: _315  and  _316
REMARK  124  A    between atoms: _315  and  _318
REMARK  125  A    between atoms: _318  and  _319
REMARK  126  A    between atoms: _325  and  _327
REMARK  127  A    between atoms: _327  and  _328
REMARK  128  A    between atoms: _327  and  _330
REMARK  129  A    between atoms: _330  and  _331
REMARK  130  A    between atoms: _334  and  _336
REMARK  131  A    between atoms: _336  and  _337
REMARK  132  A    between atoms: _336  and  _339
REMARK  133  A    between atoms: _339  and  _340
REMARK  134  A    between atoms: _340  and  _341
REMARK  135  A    between atoms: _341  and  _342
REMARK  136  A    between atoms: _351  and  _353
REMARK  137  A    between atoms: _353  and  _354
REMARK  138  A    between atoms: _356  and  _358
REMARK  139  A    between atoms: _358  and  _359
REMARK  140  A    between atoms: _361  and  _363
REMARK  141  A    between atoms: _363  and  _364
REMARK  142  A    between atoms: _363  and  _366
REMARK  143  A    between atoms: _366  and  _367
REMARK  144  A    between atoms: _370  and  _372
REMARK  145  A    between atoms: _372  and  _373
REMARK  146  A    between atoms: _372  and  _375
REMARK  147  A    between atoms: _375  and  _376
REMARK  148  A    between atoms: _381  and  _382
REMARK  149  A    between atoms: _384  and  _386
REMARK  150  A    between atoms: _386  and  _387
REMARK  151  A    between atoms: _386  and  _389
REMARK  152  A    between atoms: _389  and  _390
REMARK  153  A    between atoms: _393  and  _395
REMARK  154  A    between atoms: _395  and  _396
REMARK  155  A    between atoms: _398  and  _400
REMARK  156  A    between atoms: _400  and  _401
REMARK  157  A    between atoms: _400  and  _403
REMARK  158  A    between atoms: _403  and  _404
REMARK  159  A    between atoms: _408  and  _409
REMARK  160  A    between atoms: _414  and  _416
REMARK  161  A    between atoms: _416  and  _417
REMARK  162  A    between atoms: _416  and  _419
REMARK  163  A    between atoms: _419  and  _420
REMARK                            x       y       z     vdW  Elec       q    Type
REMARK                         _______ _______ _______ _____ _____    ______ ____
ROOT
ATOM      1  O   HOH     1     -24.485  33.767 -11.507  0.00  0.00    +0.000 OA
ENDROOT
TORSDOF 0
REMARK  Name = ../refined-set-2016/3k5x/3k5x_pocket.pdb
REMARK  163 active torsions:
REMARK  status: ('A' for Active; 'I' for Inactive)
REMARK    1  A    between atoms: _1  and  _3
REMARK    2  A    between atoms: _14  and  _17
REMARK    3  A    between atoms: _17  and  _18
REMARK    4  A    between atoms: _25  and  _26
REMARK    5  A    between atoms: _32  and  _34
REMARK    6  A    between atoms: _34  and  _35
REMARK    7  A    between atoms: _34  and  _37
REMARK    8  A    between atoms: _37  and  _38
REMARK    9  A    between atoms: _48  and  _50
REMARK   10  A    between atoms: _50  and  _51
REMARK   11  A    between atoms: _54  and  _56
REMARK   12  A    between atoms: _56  and  _57
REMARK   13  A    between atoms: _56  and  _59
REMARK   14  A    between atoms: _59  and  _60
REMARK   15  A    between atoms: _62  and  _64
REMARK   16  A    between atoms: _64  and  _65
REMARK   17  A    between atoms: _64  and  _67
REMARK   18  A    between atoms: _70  and  _72
REMARK   19  A    between atoms: _72  and  _73
REMARK   20  A    between atoms: _72  and  _75
REMARK   21  A    between atoms: _75  and  _76
REMARK   22  A    between atoms: _81  and  _82
REMARK   23  A    between atoms: _84  and  _86
REMARK   24  A    between atoms: _86  and  _87
REMARK   25  A    between atoms: _86  and  _89
REMARK   26  A    between atoms: _92  and  _94
REMARK   27  A    between atoms: _94  and  _95
REMARK   28  A    between atoms: _94  and  _97
REMARK   29  A    between atoms: _97  and  _98
REMARK   30  A    between atoms: _98  and  _99
REMARK   31  A    between atoms: _99  and  _100
REMARK   32  A    between atoms: _109  and  _111
REMARK   33  A    between atoms: _111  and  _112
REMARK   34  A    between atoms: _111  and  _114
REMARK   35  A    between atoms: _114  and  _115
REMARK   36  A    between atoms: _117  and  _119
REMARK   37  A    between atoms: _119  and  _120
REMARK   38  A    between atoms: _119  and  _122
REMARK   39  A    between atoms: _122  and  _123
REMARK   40  A    between atoms: _123  and  _124
REMARK   41  A    between atoms: _129  and  _131
REMARK   42  A    between atoms: _131  and  _132
REMARK   43  A    between atoms: _131  and  _134
REMARK   44  A    between atoms: _134  and  _135
REMARK   45  A    between atoms: _135  and  _136
REMARK   46  A    between atoms: _136  and  _137
REMARK   47  A    between atoms: _136  and  _138
REMARK   48  A    between atoms: _137  and  ZN_426
REMARK   49  A    between atoms: _138  and  ZN_427
REMARK   50  A    between atoms: _139  and  _141
REMARK   51  A    between atoms: _141  and  _142
REMARK   52  A    between atoms: _141  and  _144
REMARK   53  A    between atoms: _144  and  _145
REMARK   54  A    between atoms: _150  and  _151
REMARK   55  A    between atoms: _153  and  _155
REMARK   56  A    between atoms: _155  and  _156
REMARK   57  A    between atoms: _155  and  _158
REMARK   58  A    between atoms: _158  and  _159
REMARK   59  A    between atoms: _162  and  _164
REMARK   60  A    between atoms: _164  and  _165
REMARK   61  A    between atoms: _164  and  _167
REMARK   62  A    between atoms: _167  and  _168
REMARK   63  A    between atoms: _171  and  _173
REMARK   64  A    between atoms: _173  and  _174
REMARK   65  A    between atoms: _173  and  _176
REMARK   66  A    between atoms: _176  and  _177
REMARK   67  A    between atoms: _182  and  _184
REMARK   68  A    between atoms: _184  and  _185
REMARK   69  A    between atoms: _184  and  _187
REMARK   70  A    between atoms: _187  and  _188
REMARK   71  A    between atoms: _193  and  _195
REMARK   72  A    between atoms: _195  and  _196
REMARK   73  A    between atoms: _195  and  _198
REMARK   74  A    between atoms: _198  and  _199
REMARK   75  A    between atoms: _202  and  _204
REMARK   76  A    between atoms: _204  and  _205
REMARK   77  A    between atoms: _204  and  _207
REMARK   78  A    between atoms: _207  and  _208
REMARK   79  A    between atoms: _210  and  _212
REMARK   80  A    between atoms: _212  and  _213
REMARK   81  A    between atoms: _212  and  _215
REMARK   82  A    between atoms: _215  and  _216
REMARK   83  A    between atoms: _220  and  ZN_427
REMARK   84  A    between atoms: _221  and  _223
REMARK   85  A    between atoms: _223  and  _224
REMARK   86  A    between atoms: _223  and  _226
REMARK   87  A    between atoms: _226  and  _227
REMARK   88  A    between atoms: _229  and  _231
REMARK   89  A    between atoms: _231  and  _232
REMARK   90  A    between atoms: _231  and  _234
REMARK   91  A    between atoms: _234  and  _235
REMARK   92  A    between atoms: _239  and  ZN_427
REMARK   93  A    between atoms: _240  and  _242
REMARK   94  A    between atoms: _242  and  _243
REMARK   95  A    between atoms: _242  and  _245
REMARK   96  A    between atoms: _245  and  _246
REMARK   97  A    between atoms: _248  and  _250
REMARK   98  A    between atoms: _250  and  _251
REMARK   99  A    between atoms: _250  and  _253
REMARK  100  A    between atoms: _253  and  _254
REMARK  101  A    between atoms: _259  and  _261
REMARK  102  A    between atoms: _261  and  _262
REMARK  103  A    between atoms: _261  and  _264
REMARK  104  A    between atoms: _264  and  _265
REMARK  105  A    between atoms: _265  and  _266
REMARK  106  A    between atoms: _266  and  _267
REMARK  107  A    between atoms: _276  and  _278
REMARK  108  A    between atoms: _278  and  _279
REMARK  109  A    between atoms: _278  and  _281
REMARK  110  A    between atoms: _281  and  _282
REMARK  111  A    between atoms: _285  and  _287
REMARK  112  A    between atoms: _287  and  _288
REMARK  113  A    between atoms: _287  and  _290
REMARK  114  A    between atoms: _294  and  _295
REMARK  115  A    between atoms: _300  and  _302
REMARK  116  A    between atoms: _302  and  _303
REMARK  117  A    between atoms: _302  and  _305
REMARK  118  A    between atoms: _305  and  _306
REMARK  119  A    between atoms: _306  and  _307
REMARK  120  A    between atoms: _307  and  _308
REMARK  121  A    between atoms: _308  and  _309
REMARK  122  A    between atoms: _313  and  _315
REMARK  123  A    between atoms: _315  and  _316
REMARK  124  A    between atoms: _315  and  _318
REMARK  125  A    between atoms: _318  and  _319
REMARK  126  A    between atoms: _325  and  _327
REMARK  127  A    between atoms: _327  and  _328
REMARK  128  A    between atoms: _327  and  _330
REMARK  129  A    between atoms: _330  and  _331
REMARK  130  A    between atoms: _334  and  _336
REMARK  131  A    between atoms: _336  and  _337
REMARK  132  A    between atoms: _336  and  _339
REMARK  133  A    between atoms: _339  and  _340
REMARK  134  A    between atoms: _340  and  _341
REMARK  135  A    between atoms: _341  and  _342
REMARK  136  A    between atoms: _351  and  _353
REMARK  137  A    between atoms: _353  and  _354
REMARK  138  A    between atoms: _356  and  _358
REMARK  139  A    between atoms: _358  and  _359
REMARK  140  A    between atoms: _361  and  _363
REMARK  141  A    between atoms: _363  and  _364
REMARK  142  A    between atoms: _363  and  _366
REMARK  143  A    between atoms: _366  and  _367
REMARK  144  A    between atoms: _370  and  _372
REMARK  145  A    between atoms: _372  and  _373
REMARK  146  A    between atoms: _372  and  _375
REMARK  147  A    between atoms: _375  and  _376
REMARK  148  A    between atoms: _381  and  _382
REMARK  149  A    between atoms: _384  and  _386
REMARK  150  A    between atoms: _386  and  _387
REMARK  151  A    between atoms: _386  and  _389
REMARK  152  A    between atoms: _389  and  _390
REMARK  153  A    between atoms: _393  and  _395
REMARK  154  A    between atoms: _395  and  _396
REMARK  155  A    between atoms: _398  and  _400
REMARK  156  A    between atoms: _400  and  _401
REMARK  157  A    between atoms: _400  and  _403
REMARK  158  A    between atoms: _403  and  _404
REMARK  159  A    between atoms: _408  and  _409
REMARK  160  A    between atoms: _414  and  _416
REMARK  161  A    between atoms: _416  and  _417
REMARK  162  A    between atoms: _416  and  _419
REMARK  163  A    between atoms: _419  and  _420
REMARK                            x       y       z     vdW  Elec       q    Type
REMARK                         _______ _______ _______ _____ _____    ______ ____
ROOT
ATOM      1  O   HOH     1     -32.579  23.565 -10.889  0.00  0.00    +0.000 OA
ENDROOT
TORSDOF 0
REMARK  Name = ../refined-set-2016/3k5x/3k5x_pocket.pdb
REMARK  163 active torsions:
REMARK  status: ('A' for Active; 'I' for Inactive)
REMARK    1  A    between atoms: _1  and  _3
REMARK    2  A    between atoms: _14  and  _17
REMARK    3  A    between atoms: _17  and  _18
REMARK    4  A    between atoms: _25  and  _26
REMARK    5  A    between atoms: _32  and  _34
REMARK    6  A    between atoms: _34  and  _35
REMARK    7  A    between atoms: _34  and  _37
REMARK    8  A    between atoms: _37  and  _38
REMARK    9  A    between atoms: _48  and  _50
REMARK   10  A    between atoms: _50  and  _51
REMARK   11  A    between atoms: _54  and  _56
REMARK   12  A    between atoms: _56  and  _57
REMARK   13  A    between atoms: _56  and  _59
REMARK   14  A    between atoms: _59  and  _60
REMARK   15  A    between atoms: _62  and  _64
REMARK   16  A    between atoms: _64  and  _65
REMARK   17  A    between atoms: _64  and  _67
REMARK   18  A    between atoms: _70  and  _72
REMARK   19  A    between atoms: _72  and  _73
REMARK   20  A    between atoms: _72  and  _75
REMARK   21  A    between atoms: _75  and  _76
REMARK   22  A    between atoms: _81  and  _82
REMARK   23  A    between atoms: _84  and  _86
REMARK   24  A    between atoms: _86  and  _87
REMARK   25  A    between atoms: _86  and  _89
REMARK   26  A    between atoms: _92  and  _94
REMARK   27  A    between atoms: _94  and  _95
REMARK   28  A    between atoms: _94  and  _97
REMARK   29  A    between atoms: _97  and  _98
REMARK   30  A    between atoms: _98  and  _99
REMARK   31  A    between atoms: _99  and  _100
REMARK   32  A    between atoms: _109  and  _111
REMARK   33  A    between atoms: _111  and  _112
REMARK   34  A    between atoms: _111  and  _114
REMARK   35  A    between atoms: _114  and  _115
REMARK   36  A    between atoms: _117  and  _119
REMARK   37  A    between atoms: _119  and  _120
REMARK   38  A    between atoms: _119  and  _122
REMARK   39  A    between atoms: _122  and  _123
REMARK   40  A    between atoms: _123  and  _124
REMARK   41  A    between atoms: _129  and  _131
REMARK   42  A    between atoms: _131  and  _132
REMARK   43  A    between atoms: _131  and  _134
REMARK   44  A    between atoms: _134  and  _135
REMARK   45  A    between atoms: _135  and  _136
REMARK   46  A    between atoms: _136  and  _137
REMARK   47  A    between atoms: _136  and  _138
REMARK   48  A    between atoms: _137  and  ZN_426
REMARK   49  A    between atoms: _138  and  ZN_427
REMARK   50  A    between atoms: _139  and  _141
REMARK   51  A    between atoms: _141  and  _142
REMARK   52  A    between atoms: _141  and  _144
REMARK   53  A    between atoms: _144  and  _145
REMARK   54  A    between atoms: _150  and  _151
REMARK   55  A    between atoms: _153  and  _155
REMARK   56  A    between atoms: _155  and  _156
REMARK   57  A    between atoms: _155  and  _158
REMARK   58  A    between atoms: _158  and  _159
REMARK   59  A    between atoms: _162  and  _164
REMARK   60  A    between atoms: _164  and  _165
REMARK   61  A    between atoms: _164  and  _167
REMARK   62  A    between atoms: _167  and  _168
REMARK   63  A    between atoms: _171  and  _173
REMARK   64  A    between atoms: _173  and  _174
REMARK   65  A    between atoms: _173  and  _176
REMARK   66  A    between atoms: _176  and  _177
REMARK   67  A    between atoms: _182  and  _184
REMARK   68  A    between atoms: _184  and  _185
REMARK   69  A    between atoms: _184  and  _187
REMARK   70  A    between atoms: _187  and  _188
REMARK   71  A    between atoms: _193  and  _195
REMARK   72  A    between atoms: _195  and  _196
REMARK   73  A    between atoms: _195  and  _198
REMARK   74  A    between atoms: _198  and  _199
REMARK   75  A    between atoms: _202  and  _204
REMARK   76  A    between atoms: _204  and  _205
REMARK   77  A    between atoms: _204  and  _207
REMARK   78  A    between atoms: _207  and  _208
REMARK   79  A    between atoms: _210  and  _212
REMARK   80  A    between atoms: _212  and  _213
REMARK   81  A    between atoms: _212  and  _215
REMARK   82  A    between atoms: _215  and  _216
REMARK   83  A    between atoms: _220  and  ZN_427
REMARK   84  A    between atoms: _221  and  _223
REMARK   85  A    between atoms: _223  and  _224
REMARK   86  A    between atoms: _223  and  _226
REMARK   87  A    between atoms: _226  and  _227
REMARK   88  A    between atoms: _229  and  _231
REMARK   89  A    between atoms: _231  and  _232
REMARK   90  A    between atoms: _231  and  _234
REMARK   91  A    between atoms: _234  and  _235
REMARK   92  A    between atoms: _239  and  ZN_427
REMARK   93  A    between atoms: _240  and  _242
REMARK   94  A    between atoms: _242  and  _243
REMARK   95  A    between atoms: _242  and  _245
REMARK   96  A    between atoms: _245  and  _246
REMARK   97  A    between atoms: _248  and  _250
REMARK   98  A    between atoms: _250  and  _251
REMARK   99  A    between atoms: _250  and  _253
REMARK  100  A    between atoms: _253  and  _254
REMARK  101  A    between atoms: _259  and  _261
REMARK  102  A    between atoms: _261  and  _262
REMARK  103  A    between atoms: _261  and  _264
REMARK  104  A    between atoms: _264  and  _265
REMARK  105  A    between atoms: _265  and  _266
REMARK  106  A    between atoms: _266  and  _267
REMARK  107  A    between atoms: _276  and  _278
REMARK  108  A    between atoms: _278  and  _279
REMARK  109  A    between atoms: _278  and  _281
REMARK  110  A    between atoms: _281  and  _282
REMARK  111  A    between atoms: _285  and  _287
REMARK  112  A    between atoms: _287  and  _288
REMARK  113  A    between atoms: _287  and  _290
REMARK  114  A    between atoms: _294  and  _295
REMARK  115  A    between atoms: _300  and  _302
REMARK  116  A    between atoms: _302  and  _303
REMARK  117  A    between atoms: _302  and  _305
REMARK  118  A    between atoms: _305  and  _306
REMARK  119  A    between atoms: _306  and  _307
REMARK  120  A    between atoms: _307  and  _308
REMARK  121  A    between atoms: _308  and  _309
REMARK  122  A    between atoms: _313  and  _315
REMARK  123  A    between atoms: _315  and  _316
REMARK  124  A    between atoms: _315  and  _318
REMARK  125  A    between atoms: _318  and  _319
REMARK  126  A    between atoms: _325  and  _327
REMARK  127  A    between atoms: _327  and  _328
REMARK  128  A    between atoms: _327  and  _330
REMARK  129  A    between atoms: _330  and  _331
REMARK  130  A    between atoms: _334  and  _336
REMARK  131  A    between atoms: _336  and  _337
REMARK  132  A    between atoms: _336  and  _339
REMARK  133  A    between atoms: _339  and  _340
REMARK  134  A    between atoms: _340  and  _341
REMARK  135  A    between atoms: _341  and  _342
REMARK  136  A    between atoms: _351  and  _353
REMARK  137  A    between atoms: _353  and  _354
REMARK  138  A    between atoms: _356  and  _358
REMARK  139  A    between atoms: _358  and  _359
REMARK  140  A    between atoms: _361  and  _363
REMARK  141  A    between atoms: _363  and  _364
REMARK  142  A    between atoms: _363  and  _366
REMARK  143  A    between atoms: _366  and  _367
REMARK  144  A    between atoms: _370  and  _372
REMARK  145  A    between atoms: _372  and  _373
REMARK  146  A    between atoms: _372  and  _375
REMARK  147  A    between atoms: _375  and  _376
REMARK  148  A    between atoms: _381  and  _382
REMARK  149  A    between atoms: _384  and  _386
REMARK  150  A    between atoms: _386  and  _387
REMARK  151  A    between atoms: _386  and  _389
REMARK  152  A    between atoms: _389  and  _390
REMARK  153  A    between atoms: _393  and  _395
REMARK  154  A    between atoms: _395  and  _396
REMARK  155  A    between atoms: _398  and  _400
REMARK  156  A    between atoms: _400  and  _401
REMARK  157  A    between atoms: _400  and  _403
REMARK  158  A    between atoms: _403  and  _404
REMARK  159  A    between atoms: _408  and  _409
REMARK  160  A    between atoms: _414  and  _416
REMARK  161  A    between atoms: _416  and  _417
REMARK  162  A    between atoms: _416  and  _419
REMARK  163  A    between atoms: _419  and  _420
REMARK                            x       y       z     vdW  Elec       q    Type
REMARK                         _______ _______ _______ _____ _____    ______ ____
ROOT
ATOM      1  O   HOH     1     -26.402  35.527 -12.042  0.00  0.00    +0.000 OA
ENDROOT
TORSDOF 0
REMARK  Name = ../refined-set-2016/3k5x/3k5x_pocket.pdb
REMARK  163 active torsions:
REMARK  status: ('A' for Active; 'I' for Inactive)
REMARK    1  A    between atoms: _1  and  _3
REMARK    2  A    between atoms: _14  and  _17
REMARK    3  A    between atoms: _17  and  _18
REMARK    4  A    between atoms: _25  and  _26
REMARK    5  A    between atoms: _32  and  _34
REMARK    6  A    between atoms: _34  and  _35
REMARK    7  A    between atoms: _34  and  _37
REMARK    8  A    between atoms: _37  and  _38
REMARK    9  A    between atoms: _48  and  _50
REMARK   10  A    between atoms: _50  and  _51
REMARK   11  A    between atoms: _54  and  _56
REMARK   12  A    between atoms: _56  and  _57
REMARK   13  A    between atoms: _56  and  _59
REMARK   14  A    between atoms: _59  and  _60
REMARK   15  A    between atoms: _62  and  _64
REMARK   16  A    between atoms: _64  and  _65
REMARK   17  A    between atoms: _64  and  _67
REMARK   18  A    between atoms: _70  and  _72
REMARK   19  A    between atoms: _72  and  _73
REMARK   20  A    between atoms: _72  and  _75
REMARK   21  A    between atoms: _75  and  _76
REMARK   22  A    between atoms: _81  and  _82
REMARK   23  A    between atoms: _84  and  _86
REMARK   24  A    between atoms: _86  and  _87
REMARK   25  A    between atoms: _86  and  _89
REMARK   26  A    between atoms: _92  and  _94
REMARK   27  A    between atoms: _94  and  _95
REMARK   28  A    between atoms: _94  and  _97
REMARK   29  A    between atoms: _97  and  _98
REMARK   30  A    between atoms: _98  and  _99
REMARK   31  A    between atoms: _99  and  _100
REMARK   32  A    between atoms: _109  and  _111
REMARK   33  A    between atoms: _111  and  _112
REMARK   34  A    between atoms: _111  and  _114
REMARK   35  A    between atoms: _114  and  _115
REMARK   36  A    between atoms: _117  and  _119
REMARK   37  A    between atoms: _119  and  _120
REMARK   38  A    between atoms: _119  and  _122
REMARK   39  A    between atoms: _122  and  _123
REMARK   40  A    between atoms: _123  and  _124
REMARK   41  A    between atoms: _129  and  _131
REMARK   42  A    between atoms: _131  and  _132
REMARK   43  A    between atoms: _131  and  _134
REMARK   44  A    between atoms: _134  and  _135
REMARK   45  A    between atoms: _135  and  _136
REMARK   46  A    between atoms: _136  and  _137
REMARK   47  A    between atoms: _136  and  _138
REMARK   48  A    between atoms: _137  and  ZN_426
REMARK   49  A    between atoms: _138  and  ZN_427
REMARK   50  A    between atoms: _139  and  _141
REMARK   51  A    between atoms: _141  and  _142
REMARK   52  A    between atoms: _141  and  _144
REMARK   53  A    between atoms: _144  and  _145
REMARK   54  A    between atoms: _150  and  _151
REMARK   55  A    between atoms: _153  and  _155
REMARK   56  A    between atoms: _155  and  _156
REMARK   57  A    between atoms: _155  and  _158
REMARK   58  A    between atoms: _158  and  _159
REMARK   59  A    between atoms: _162  and  _164
REMARK   60  A    between atoms: _164  and  _165
REMARK   61  A    between atoms: _164  and  _167
REMARK   62  A    between atoms: _167  and  _168
REMARK   63  A    between atoms: _171  and  _173
REMARK   64  A    between atoms: _173  and  _174
REMARK   65  A    between atoms: _173  and  _176
REMARK   66  A    between atoms: _176  and  _177
REMARK   67  A    between atoms: _182  and  _184
REMARK   68  A    between atoms: _184  and  _185
REMARK   69  A    between atoms: _184  and  _187
REMARK   70  A    between atoms: _187  and  _188
REMARK   71  A    between atoms: _193  and  _195
REMARK   72  A    between atoms: _195  and  _196
REMARK   73  A    between atoms: _195  and  _198
REMARK   74  A    between atoms: _198  and  _199
REMARK   75  A    between atoms: _202  and  _204
REMARK   76  A    between atoms: _204  and  _205
REMARK   77  A    between atoms: _204  and  _207
REMARK   78  A    between atoms: _207  and  _208
REMARK   79  A    between atoms: _210  and  _212
REMARK   80  A    between atoms: _212  and  _213
REMARK   81  A    between atoms: _212  and  _215
REMARK   82  A    between atoms: _215  and  _216
REMARK   83  A    between atoms: _220  and  ZN_427
REMARK   84  A    between atoms: _221  and  _223
REMARK   85  A    between atoms: _223  and  _224
REMARK   86  A    between atoms: _223  and  _226
REMARK   87  A    between atoms: _226  and  _227
REMARK   88  A    between atoms: _229  and  _231
REMARK   89  A    between atoms: _231  and  _232
REMARK   90  A    between atoms: _231  and  _234
REMARK   91  A    between atoms: _234  and  _235
REMARK   92  A    between atoms: _239  and  ZN_427
REMARK   93  A    between atoms: _240  and  _242
REMARK   94  A    between atoms: _242  and  _243
REMARK   95  A    between atoms: _242  and  _245
REMARK   96  A    between atoms: _245  and  _246
REMARK   97  A    between atoms: _248  and  _250
REMARK   98  A    between atoms: _250  and  _251
REMARK   99  A    between atoms: _250  and  _253
REMARK  100  A    between atoms: _253  and  _254
REMARK  101  A    between atoms: _259  and  _261
REMARK  102  A    between atoms: _261  and  _262
REMARK  103  A    between atoms: _261  and  _264
REMARK  104  A    between atoms: _264  and  _265
REMARK  105  A    between atoms: _265  and  _266
REMARK  106  A    between atoms: _266  and  _267
REMARK  107  A    between atoms: _276  and  _278
REMARK  108  A    between atoms: _278  and  _279
REMARK  109  A    between atoms: _278  and  _281
REMARK  110  A    between atoms: _281  and  _282
REMARK  111  A    between atoms: _285  and  _287
REMARK  112  A    between atoms: _287  and  _288
REMARK  113  A    between atoms: _287  and  _290
REMARK  114  A    between atoms: _294  and  _295
REMARK  115  A    between atoms: _300  and  _302
REMARK  116  A    between atoms: _302  and  _303
REMARK  117  A    between atoms: _302  and  _305
REMARK  118  A    between atoms: _305  and  _306
REMARK  119  A    between atoms: _306  and  _307
REMARK  120  A    between atoms: _307  and  _308
REMARK  121  A    between atoms: _308  and  _309
REMARK  122  A    between atoms: _313  and  _315
REMARK  123  A    between atoms: _315  and  _316
REMARK  124  A    between atoms: _315  and  _318
REMARK  125  A    between atoms: _318  and  _319
REMARK  126  A    between atoms: _325  and  _327
REMARK  127  A    between atoms: _327  and  _328
REMARK  128  A    between atoms: _327  and  _330
REMARK  129  A    between atoms: _330  and  _331
REMARK  130  A    between atoms: _334  and  _336
REMARK  131  A    between atoms: _336  and  _337
REMARK  132  A    between atoms: _336  and  _339
REMARK  133  A    between atoms: _339  and  _340
REMARK  134  A    between atoms: _340  and  _341
REMARK  135  A    between atoms: _341  and  _342
REMARK  136  A    between atoms: _351  and  _353
REMARK  137  A    between atoms: _353  and  _354
REMARK  138  A    between atoms: _356  and  _358
REMARK  139  A    between atoms: _358  and  _359
REMARK  140  A    between atoms: _361  and  _363
REMARK  141  A    between atoms: _363  and  _364
REMARK  142  A    between atoms: _363  and  _366
REMARK  143  A    between atoms: _366  and  _367
REMARK  144  A    between atoms: _370  and  _372
REMARK  145  A    between atoms: _372  and  _373
REMARK  146  A    between atoms: _372  and  _375
REMARK  147  A    between atoms: _375  and  _376
REMARK  148  A    between atoms: _381  and  _382
REMARK  149  A    between atoms: _384  and  _386
REMARK  150  A    between atoms: _386  and  _387
REMARK  151  A    between atoms: _386  and  _389
REMARK  152  A    between atoms: _389  and  _390
REMARK  153  A    between atoms: _393  and  _395
REMARK  154  A    between atoms: _395  and  _396
REMARK  155  A    between atoms: _398  and  _400
REMARK  156  A    between atoms: _400  and  _401
REMARK  157  A    between atoms: _400  and  _403
REMARK  158  A    between atoms: _403  and  _404
REMARK  159  A    between atoms: _408  and  _409
REMARK  160  A    between atoms: _414  and  _416
REMARK  161  A    between atoms: _416  and  _417
REMARK  162  A    between atoms: _416  and  _419
REMARK  163  A    between atoms: _419  and  _420
REMARK                            x       y       z     vdW  Elec       q    Type
REMARK                         _______ _______ _______ _____ _____    ______ ____
ROOT
ATOM      1  O   HOH     1     -25.008  38.510 -16.885  0.00  0.00    +0.000 OA
ENDROOT
TORSDOF 0
REMARK  Name = ../refined-set-2016/3k5x/3k5x_pocket.pdb
REMARK  163 active torsions:
REMARK  status: ('A' for Active; 'I' for Inactive)
REMARK    1  A    between atoms: _1  and  _3
REMARK    2  A    between atoms: _14  and  _17
REMARK    3  A    between atoms: _17  and  _18
REMARK    4  A    between atoms: _25  and  _26
REMARK    5  A    between atoms: _32  and  _34
REMARK    6  A    between atoms: _34  and  _35
REMARK    7  A    between atoms: _34  and  _37
REMARK    8  A    between atoms: _37  and  _38
REMARK    9  A    between atoms: _48  and  _50
REMARK   10  A    between atoms: _50  and  _51
REMARK   11  A    between atoms: _54  and  _56
REMARK   12  A    between atoms: _56  and  _57
REMARK   13  A    between atoms: _56  and  _59
REMARK   14  A    between atoms: _59  and  _60
REMARK   15  A    between atoms: _62  and  _64
REMARK   16  A    between atoms: _64  and  _65
REMARK   17  A    between atoms: _64  and  _67
REMARK   18  A    between atoms: _70  and  _72
REMARK   19  A    between atoms: _72  and  _73
REMARK   20  A    between atoms: _72  and  _75
REMARK   21  A    between atoms: _75  and  _76
REMARK   22  A    between atoms: _81  and  _82
REMARK   23  A    between atoms: _84  and  _86
REMARK   24  A    between atoms: _86  and  _87
REMARK   25  A    between atoms: _86  and  _89
REMARK   26  A    between atoms: _92  and  _94
REMARK   27  A    between atoms: _94  and  _95
REMARK   28  A    between atoms: _94  and  _97
REMARK   29  A    between atoms: _97  and  _98
REMARK   30  A    between atoms: _98  and  _99
REMARK   31  A    between atoms: _99  and  _100
REMARK   32  A    between atoms: _109  and  _111
REMARK   33  A    between atoms: _111  and  _112
REMARK   34  A    between atoms: _111  and  _114
REMARK   35  A    between atoms: _114  and  _115
REMARK   36  A    between atoms: _117  and  _119
REMARK   37  A    between atoms: _119  and  _120
REMARK   38  A    between atoms: _119  and  _122
REMARK   39  A    between atoms: _122  and  _123
REMARK   40  A    between atoms: _123  and  _124
REMARK   41  A    between atoms: _129  and  _131
REMARK   42  A    between atoms: _131  and  _132
REMARK   43  A    between atoms: _131  and  _134
REMARK   44  A    between atoms: _134  and  _135
REMARK   45  A    between atoms: _135  and  _136
REMARK   46  A    between atoms: _136  and  _137
REMARK   47  A    between atoms: _136  and  _138
REMARK   48  A    between atoms: _137  and  ZN_426
REMARK   49  A    between atoms: _138  and  ZN_427
REMARK   50  A    between atoms: _139  and  _141
REMARK   51  A    between atoms: _141  and  _142
REMARK   52  A    between atoms: _141  and  _144
REMARK   53  A    between atoms: _144  and  _145
REMARK   54  A    between atoms: _150  and  _151
REMARK   55  A    between atoms: _153  and  _155
REMARK   56  A    between atoms: _155  and  _156
REMARK   57  A    between atoms: _155  and  _158
REMARK   58  A    between atoms: _158  and  _159
REMARK   59  A    between atoms: _162  and  _164
REMARK   60  A    between atoms: _164  and  _165
REMARK   61  A    between atoms: _164  and  _167
REMARK   62  A    between atoms: _167  and  _168
REMARK   63  A    between atoms: _171  and  _173
REMARK   64  A    between atoms: _173  and  _174
REMARK   65  A    between atoms: _173  and  _176
REMARK   66  A    between atoms: _176  and  _177
REMARK   67  A    between atoms: _182  and  _184
REMARK   68  A    between atoms: _184  and  _185
REMARK   69  A    between atoms: _184  and  _187
REMARK   70  A    between atoms: _187  and  _188
REMARK   71  A    between atoms: _193  and  _195
REMARK   72  A    between atoms: _195  and  _196
REMARK   73  A    between atoms: _195  and  _198
REMARK   74  A    between atoms: _198  and  _199
REMARK   75  A    between atoms: _202  and  _204
REMARK   76  A    between atoms: _204  and  _205
REMARK   77  A    between atoms: _204  and  _207
REMARK   78  A    between atoms: _207  and  _208
REMARK   79  A    between atoms: _210  and  _212
REMARK   80  A    between atoms: _212  and  _213
REMARK   81  A    between atoms: _212  and  _215
REMARK   82  A    between atoms: _215  and  _216
REMARK   83  A    between atoms: _220  and  ZN_427
REMARK   84  A    between atoms: _221  and  _223
REMARK   85  A    between atoms: _223  and  _224
REMARK   86  A    between atoms: _223  and  _226
REMARK   87  A    between atoms: _226  and  _227
REMARK   88  A    between atoms: _229  and  _231
REMARK   89  A    between atoms: _231  and  _232
REMARK   90  A    between atoms: _231  and  _234
REMARK   91  A    between atoms: _234  and  _235
REMARK   92  A    between atoms: _239  and  ZN_427
REMARK   93  A    between atoms: _240  and  _242
REMARK   94  A    between atoms: _242  and  _243
REMARK   95  A    between atoms: _242  and  _245
REMARK   96  A    between atoms: _245  and  _246
REMARK   97  A    between atoms: _248  and  _250
REMARK   98  A    between atoms: _250  and  _251
REMARK   99  A    between atoms: _250  and  _253
REMARK  100  A    between atoms: _253  and  _254
REMARK  101  A    between atoms: _259  and  _261
REMARK  102  A    between atoms: _261  and  _262
REMARK  103  A    between atoms: _261  and  _264
REMARK  104  A    between atoms: _264  and  _265
REMARK  105  A    between atoms: _265  and  _266
REMARK  106  A    between atoms: _266  and  _267
REMARK  107  A    between atoms: _276  and  _278
REMARK  108  A    between atoms: _278  and  _279
REMARK  109  A    between atoms: _278  and  _281
REMARK  110  A    between atoms: _281  and  _282
REMARK  111  A    between atoms: _285  and  _287
REMARK  112  A    between atoms: _287  and  _288
REMARK  113  A    between atoms: _287  and  _290
REMARK  114  A    between atoms: _294  and  _295
REMARK  115  A    between atoms: _300  and  _302
REMARK  116  A    between atoms: _302  and  _303
REMARK  117  A    between atoms: _302  and  _305
REMARK  118  A    between atoms: _305  and  _306
REMARK  119  A    between atoms: _306  and  _307
REMARK  120  A    between atoms: _307  and  _308
REMARK  121  A    between atoms: _308  and  _309
REMARK  122  A    between atoms: _313  and  _315
REMARK  123  A    between atoms: _315  and  _316
REMARK  124  A    between atoms: _315  and  _318
REMARK  125  A    between atoms: _318  and  _319
REMARK  126  A    between atoms: _325  and  _327
REMARK  127  A    between atoms: _327  and  _328
REMARK  128  A    between atoms: _327  and  _330
REMARK  129  A    between atoms: _330  and  _331
REMARK  130  A    between atoms: _334  and  _336
REMARK  131  A    between atoms: _336  and  _337
REMARK  132  A    between atoms: _336  and  _339
REMARK  133  A    between atoms: _339  and  _340
REMARK  134  A    between atoms: _340  and  _341
REMARK  135  A    between atoms: _341  and  _342
REMARK  136  A    between atoms: _351  and  _353
REMARK  137  A    between atoms: _353  and  _354
REMARK  138  A    between atoms: _356  and  _358
REMARK  139  A    between atoms: _358  and  _359
REMARK  140  A    between atoms: _361  and  _363
REMARK  141  A    between atoms: _363  and  _364
REMARK  142  A    between atoms: _363  and  _366
REMARK  143  A    between atoms: _366  and  _367
REMARK  144  A    between atoms: _370  and  _372
REMARK  145  A    between atoms: _372  and  _373
REMARK  146  A    between atoms: _372  and  _375
REMARK  147  A    between atoms: _375  and  _376
REMARK  148  A    between atoms: _381  and  _382
REMARK  149  A    between atoms: _384  and  _386
REMARK  150  A    between atoms: _386  and  _387
REMARK  151  A    between atoms: _386  and  _389
REMARK  152  A    between atoms: _389  and  _390
REMARK  153  A    between atoms: _393  and  _395
REMARK  154  A    between atoms: _395  and  _396
REMARK  155  A    between atoms: _398  and  _400
REMARK  156  A    between atoms: _400  and  _401
REMARK  157  A    between atoms: _400  and  _403
REMARK  158  A    between atoms: _403  and  _404
REMARK  159  A    between atoms: _408  and  _409
REMARK  160  A    between atoms: _414  and  _416
REMARK  161  A    between atoms: _416  and  _417
REMARK  162  A    between atoms: _416  and  _419
REMARK  163  A    between atoms: _419  and  _420
REMARK                            x       y       z     vdW  Elec       q    Type
REMARK                         _______ _______ _______ _____ _____    ______ ____
ROOT
ATOM      1  O   HOH     1     -22.222  33.109 -13.642  0.00  0.00    +0.000 OA
ENDROOT
TORSDOF 0
REMARK  Name = ../refined-set-2016/3k5x/3k5x_pocket.pdb
REMARK  163 active torsions:
REMARK  status: ('A' for Active; 'I' for Inactive)
REMARK    1  A    between atoms: _1  and  _3
REMARK    2  A    between atoms: _14  and  _17
REMARK    3  A    between atoms: _17  and  _18
REMARK    4  A    between atoms: _25  and  _26
REMARK    5  A    between atoms: _32  and  _34
REMARK    6  A    between atoms: _34  and  _35
REMARK    7  A    between atoms: _34  and  _37
REMARK    8  A    between atoms: _37  and  _38
REMARK    9  A    between atoms: _48  and  _50
REMARK   10  A    between atoms: _50  and  _51
REMARK   11  A    between atoms: _54  and  _56
REMARK   12  A    between atoms: _56  and  _57
REMARK   13  A    between atoms: _56  and  _59
REMARK   14  A    between atoms: _59  and  _60
REMARK   15  A    between atoms: _62  and  _64
REMARK   16  A    between atoms: _64  and  _65
REMARK   17  A    between atoms: _64  and  _67
REMARK   18  A    between atoms: _70  and  _72
REMARK   19  A    between atoms: _72  and  _73
REMARK   20  A    between atoms: _72  and  _75
REMARK   21  A    between atoms: _75  and  _76
REMARK   22  A    between atoms: _81  and  _82
REMARK   23  A    between atoms: _84  and  _86
REMARK   24  A    between atoms: _86  and  _87
REMARK   25  A    between atoms: _86  and  _89
REMARK   26  A    between atoms: _92  and  _94
REMARK   27  A    between atoms: _94  and  _95
REMARK   28  A    between atoms: _94  and  _97
REMARK   29  A    between atoms: _97  and  _98
REMARK   30  A    between atoms: _98  and  _99
REMARK   31  A    between atoms: _99  and  _100
REMARK   32  A    between atoms: _109  and  _111
REMARK   33  A    between atoms: _111  and  _112
REMARK   34  A    between atoms: _111  and  _114
REMARK   35  A    between atoms: _114  and  _115
REMARK   36  A    between atoms: _117  and  _119
REMARK   37  A    between atoms: _119  and  _120
REMARK   38  A    between atoms: _119  and  _122
REMARK   39  A    between atoms: _122  and  _123
REMARK   40  A    between atoms: _123  and  _124
REMARK   41  A    between atoms: _129  and  _131
REMARK   42  A    between atoms: _131  and  _132
REMARK   43  A    between atoms: _131  and  _134
REMARK   44  A    between atoms: _134  and  _135
REMARK   45  A    between atoms: _135  and  _136
REMARK   46  A    between atoms: _136  and  _137
REMARK   47  A    between atoms: _136  and  _138
REMARK   48  A    between atoms: _137  and  ZN_426
REMARK   49  A    between atoms: _138  and  ZN_427
REMARK   50  A    between atoms: _139  and  _141
REMARK   51  A    between atoms: _141  and  _142
REMARK   52  A    between atoms: _141  and  _144
REMARK   53  A    between atoms: _144  and  _145
REMARK   54  A    between atoms: _150  and  _151
REMARK   55  A    between atoms: _153  and  _155
REMARK   56  A    between atoms: _155  and  _156
REMARK   57  A    between atoms: _155  and  _158
REMARK   58  A    between atoms: _158  and  _159
REMARK   59  A    between atoms: _162  and  _164
REMARK   60  A    between atoms: _164  and  _165
REMARK   61  A    between atoms: _164  and  _167
REMARK   62  A    between atoms: _167  and  _168
REMARK   63  A    between atoms: _171  and  _173
REMARK   64  A    between atoms: _173  and  _174
REMARK   65  A    between atoms: _173  and  _176
REMARK   66  A    between atoms: _176  and  _177
REMARK   67  A    between atoms: _182  and  _184
REMARK   68  A    between atoms: _184  and  _185
REMARK   69  A    between atoms: _184  and  _187
REMARK   70  A    between atoms: _187  and  _188
REMARK   71  A    between atoms: _193  and  _195
REMARK   72  A    between atoms: _195  and  _196
REMARK   73  A    between atoms: _195  and  _198
REMARK   74  A    between atoms: _198  and  _199
REMARK   75  A    between atoms: _202  and  _204
REMARK   76  A    between atoms: _204  and  _205
REMARK   77  A    between atoms: _204  and  _207
REMARK   78  A    between atoms: _207  and  _208
REMARK   79  A    between atoms: _210  and  _212
REMARK   80  A    between atoms: _212  and  _213
REMARK   81  A    between atoms: _212  and  _215
REMARK   82  A    between atoms: _215  and  _216
REMARK   83  A    between atoms: _220  and  ZN_427
REMARK   84  A    between atoms: _221  and  _223
REMARK   85  A    between atoms: _223  and  _224
REMARK   86  A    between atoms: _223  and  _226
REMARK   87  A    between atoms: _226  and  _227
REMARK   88  A    between atoms: _229  and  _231
REMARK   89  A    between atoms: _231  and  _232
REMARK   90  A    between atoms: _231  and  _234
REMARK   91  A    between atoms: _234  and  _235
REMARK   92  A    between atoms: _239  and  ZN_427
REMARK   93  A    between atoms: _240  and  _242
REMARK   94  A    between atoms: _242  and  _243
REMARK   95  A    between atoms: _242  and  _245
REMARK   96  A    between atoms: _245  and  _246
REMARK   97  A    between atoms: _248  and  _250
REMARK   98  A    between atoms: _250  and  _251
REMARK   99  A    between atoms: _250  and  _253
REMARK  100  A    between atoms: _253  and  _254
REMARK  101  A    between atoms: _259  and  _261
REMARK  102  A    between atoms: _261  and  _262
REMARK  103  A    between atoms: _261  and  _264
REMARK  104  A    between atoms: _264  and  _265
REMARK  105  A    between atoms: _265  and  _266
REMARK  106  A    between atoms: _266  and  _267
REMARK  107  A    between atoms: _276  and  _278
REMARK  108  A    between atoms: _278  and  _279
REMARK  109  A    between atoms: _278  and  _281
REMARK  110  A    between atoms: _281  and  _282
REMARK  111  A    between atoms: _285  and  _287
REMARK  112  A    between atoms: _287  and  _288
REMARK  113  A    between atoms: _287  and  _290
REMARK  114  A    between atoms: _294  and  _295
REMARK  115  A    between atoms: _300  and  _302
REMARK  116  A    between atoms: _302  and  _303
REMARK  117  A    between atoms: _302  and  _305
REMARK  118  A    between atoms: _305  and  _306
REMARK  119  A    between atoms: _306  and  _307
REMARK  120  A    between atoms: _307  and  _308
REMARK  121  A    between atoms: _308  and  _309
REMARK  122  A    between atoms: _313  and  _315
REMARK  123  A    between atoms: _315  and  _316
REMARK  124  A    between atoms: _315  and  _318
REMARK  125  A    between atoms: _318  and  _319
REMARK  126  A    between atoms: _325  and  _327
REMARK  127  A    between atoms: _327  and  _328
REMARK  128  A    between atoms: _327  and  _330
REMARK  129  A    between atoms: _330  and  _331
REMARK  130  A    between atoms: _334  and  _336
REMARK  131  A    between atoms: _336  and  _337
REMARK  132  A    between atoms: _336  and  _339
REMARK  133  A    between atoms: _339  and  _340
REMARK  134  A    between atoms: _340  and  _341
REMARK  135  A    between atoms: _341  and  _342
REMARK  136  A    between atoms: _351  and  _353
REMARK  137  A    between atoms: _353  and  _354
REMARK  138  A    between atoms: _356  and  _358
REMARK  139  A    between atoms: _358  and  _359
REMARK  140  A    between atoms: _361  and  _363
REMARK  141  A    between atoms: _363  and  _364
REMARK  142  A    between atoms: _363  and  _366
REMARK  143  A    between atoms: _366  and  _367
REMARK  144  A    between atoms: _370  and  _372
REMARK  145  A    between atoms: _372  and  _373
REMARK  146  A    between atoms: _372  and  _375
REMARK  147  A    between atoms: _375  and  _376
REMARK  148  A    between atoms: _381  and  _382
REMARK  149  A    between atoms: _384  and  _386
REMARK  150  A    between atoms: _386  and  _387
REMARK  151  A    between atoms: _386  and  _389
REMARK  152  A    between atoms: _389  and  _390
REMARK  153  A    between atoms: _393  and  _395
REMARK  154  A    between atoms: _395  and  _396
REMARK  155  A    between atoms: _398  and  _400
REMARK  156  A    between atoms: _400  and  _401
REMARK  157  A    between atoms: _400  and  _403
REMARK  158  A    between atoms: _403  and  _404
REMARK  159  A    between atoms: _408  and  _409
REMARK  160  A    between atoms: _414  and  _416
REMARK  161  A    between atoms: _416  and  _417
REMARK  162  A    between atoms: _416  and  _419
REMARK  163  A    between atoms: _419  and  _420
REMARK                            x       y       z     vdW  Elec       q    Type
REMARK                         _______ _______ _______ _____ _____    ______ ____
ROOT
ATOM      1  O   HOH     1     -29.107  36.680 -19.831  0.00  0.00    +0.000 OA
ENDROOT
TORSDOF 0
REMARK  Name = ../refined-set-2016/3k5x/3k5x_pocket.pdb
REMARK  163 active torsions:
REMARK  status: ('A' for Active; 'I' for Inactive)
REMARK    1  A    between atoms: _1  and  _3
REMARK    2  A    between atoms: _14  and  _17
REMARK    3  A    between atoms: _17  and  _18
REMARK    4  A    between atoms: _25  and  _26
REMARK    5  A    between atoms: _32  and  _34
REMARK    6  A    between atoms: _34  and  _35
REMARK    7  A    between atoms: _34  and  _37
REMARK    8  A    between atoms: _37  and  _38
REMARK    9  A    between atoms: _48  and  _50
REMARK   10  A    between atoms: _50  and  _51
REMARK   11  A    between atoms: _54  and  _56
REMARK   12  A    between atoms: _56  and  _57
REMARK   13  A    between atoms: _56  and  _59
REMARK   14  A    between atoms: _59  and  _60
REMARK   15  A    between atoms: _62  and  _64
REMARK   16  A    between atoms: _64  and  _65
REMARK   17  A    between atoms: _64  and  _67
REMARK   18  A    between atoms: _70  and  _72
REMARK   19  A    between atoms: _72  and  _73
REMARK   20  A    between atoms: _72  and  _75
REMARK   21  A    between atoms: _75  and  _76
REMARK   22  A    between atoms: _81  and  _82
REMARK   23  A    between atoms: _84  and  _86
REMARK   24  A    between atoms: _86  and  _87
REMARK   25  A    between atoms: _86  and  _89
REMARK   26  A    between atoms: _92  and  _94
REMARK   27  A    between atoms: _94  and  _95
REMARK   28  A    between atoms: _94  and  _97
REMARK   29  A    between atoms: _97  and  _98
REMARK   30  A    between atoms: _98  and  _99
REMARK   31  A    between atoms: _99  and  _100
REMARK   32  A    between atoms: _109  and  _111
REMARK   33  A    between atoms: _111  and  _112
REMARK   34  A    between atoms: _111  and  _114
REMARK   35  A    between atoms: _114  and  _115
REMARK   36  A    between atoms: _117  and  _119
REMARK   37  A    between atoms: _119  and  _120
REMARK   38  A    between atoms: _119  and  _122
REMARK   39  A    between atoms: _122  and  _123
REMARK   40  A    between atoms: _123  and  _124
REMARK   41  A    between atoms: _129  and  _131
REMARK   42  A    between atoms: _131  and  _132
REMARK   43  A    between atoms: _131  and  _134
REMARK   44  A    between atoms: _134  and  _135
REMARK   45  A    between atoms: _135  and  _136
REMARK   46  A    between atoms: _136  and  _137
REMARK   47  A    between atoms: _136  and  _138
REMARK   48  A    between atoms: _137  and  ZN_426
REMARK   49  A    between atoms: _138  and  ZN_427
REMARK   50  A    between atoms: _139  and  _141
REMARK   51  A    between atoms: _141  and  _142
REMARK   52  A    between atoms: _141  and  _144
REMARK   53  A    between atoms: _144  and  _145
REMARK   54  A    between atoms: _150  and  _151
REMARK   55  A    between atoms: _153  and  _155
REMARK   56  A    between atoms: _155  and  _156
REMARK   57  A    between atoms: _155  and  _158
REMARK   58  A    between atoms: _158  and  _159
REMARK   59  A    between atoms: _162  and  _164
REMARK   60  A    between atoms: _164  and  _165
REMARK   61  A    between atoms: _164  and  _167
REMARK   62  A    between atoms: _167  and  _168
REMARK   63  A    between atoms: _171  and  _173
REMARK   64  A    between atoms: _173  and  _174
REMARK   65  A    between atoms: _173  and  _176
REMARK   66  A    between atoms: _176  and  _177
REMARK   67  A    between atoms: _182  and  _184
REMARK   68  A    between atoms: _184  and  _185
REMARK   69  A    between atoms: _184  and  _187
REMARK   70  A    between atoms: _187  and  _188
REMARK   71  A    between atoms: _193  and  _195
REMARK   72  A    between atoms: _195  and  _196
REMARK   73  A    between atoms: _195  and  _198
REMARK   74  A    between atoms: _198  and  _199
REMARK   75  A    between atoms: _202  and  _204
REMARK   76  A    between atoms: _204  and  _205
REMARK   77  A    between atoms: _204  and  _207
REMARK   78  A    between atoms: _207  and  _208
REMARK   79  A    between atoms: _210  and  _212
REMARK   80  A    between atoms: _212  and  _213
REMARK   81  A    between atoms: _212  and  _215
REMARK   82  A    between atoms: _215  and  _216
REMARK   83  A    between atoms: _220  and  ZN_427
REMARK   84  A    between atoms: _221  and  _223
REMARK   85  A    between atoms: _223  and  _224
REMARK   86  A    between atoms: _223  and  _226
REMARK   87  A    between atoms: _226  and  _227
REMARK   88  A    between atoms: _229  and  _231
REMARK   89  A    between atoms: _231  and  _232
REMARK   90  A    between atoms: _231  and  _234
REMARK   91  A    between atoms: _234  and  _235
REMARK   92  A    between atoms: _239  and  ZN_427
REMARK   93  A    between atoms: _240  and  _242
REMARK   94  A    between atoms: _242  and  _243
REMARK   95  A    between atoms: _242  and  _245
REMARK   96  A    between atoms: _245  and  _246
REMARK   97  A    between atoms: _248  and  _250
REMARK   98  A    between atoms: _250  and  _251
REMARK   99  A    between atoms: _250  and  _253
REMARK  100  A    between atoms: _253  and  _254
REMARK  101  A    between atoms: _259  and  _261
REMARK  102  A    between atoms: _261  and  _262
REMARK  103  A    between atoms: _261  and  _264
REMARK  104  A    between atoms: _264  and  _265
REMARK  105  A    between atoms: _265  and  _266
REMARK  106  A    between atoms: _266  and  _267
REMARK  107  A    between atoms: _276  and  _278
REMARK  108  A    between atoms: _278  and  _279
REMARK  109  A    between atoms: _278  and  _281
REMARK  110  A    between atoms: _281  and  _282
REMARK  111  A    between atoms: _285  and  _287
REMARK  112  A    between atoms: _287  and  _288
REMARK  113  A    between atoms: _287  and  _290
REMARK  114  A    between atoms: _294  and  _295
REMARK  115  A    between atoms: _300  and  _302
REMARK  116  A    between atoms: _302  and  _303
REMARK  117  A    between atoms: _302  and  _305
REMARK  118  A    between atoms: _305  and  _306
REMARK  119  A    between atoms: _306  and  _307
REMARK  120  A    between atoms: _307  and  _308
REMARK  121  A    between atoms: _308  and  _309
REMARK  122  A    between atoms: _313  and  _315
REMARK  123  A    between atoms: _315  and  _316
REMARK  124  A    between atoms: _315  and  _318
REMARK  125  A    between atoms: _318  and  _319
REMARK  126  A    between atoms: _325  and  _327
REMARK  127  A    between atoms: _327  and  _328
REMARK  128  A    between atoms: _327  and  _330
REMARK  129  A    between atoms: _330  and  _331
REMARK  130  A    between atoms: _334  and  _336
REMARK  131  A    between atoms: _336  and  _337
REMARK  132  A    between atoms: _336  and  _339
REMARK  133  A    between atoms: _339  and  _340
REMARK  134  A    between atoms: _340  and  _341
REMARK  135  A    between atoms: _341  and  _342
REMARK  136  A    between atoms: _351  and  _353
REMARK  137  A    between atoms: _353  and  _354
REMARK  138  A    between atoms: _356  and  _358
REMARK  139  A    between atoms: _358  and  _359
REMARK  140  A    between atoms: _361  and  _363
REMARK  141  A    between atoms: _363  and  _364
REMARK  142  A    between atoms: _363  and  _366
REMARK  143  A    between atoms: _366  and  _367
REMARK  144  A    between atoms: _370  and  _372
REMARK  145  A    between atoms: _372  and  _373
REMARK  146  A    between atoms: _372  and  _375
REMARK  147  A    between atoms: _375  and  _376
REMARK  148  A    between atoms: _381  and  _382
REMARK  149  A    between atoms: _384  and  _386
REMARK  150  A    between atoms: _386  and  _387
REMARK  151  A    between atoms: _386  and  _389
REMARK  152  A    between atoms: _389  and  _390
REMARK  153  A    between atoms: _393  and  _395
REMARK  154  A    between atoms: _395  and  _396
REMARK  155  A    between atoms: _398  and  _400
REMARK  156  A    between atoms: _400  and  _401
REMARK  157  A    between atoms: _400  and  _403
REMARK  158  A    between atoms: _403  and  _404
REMARK  159  A    between atoms: _408  and  _409
REMARK  160  A    between atoms: _414  and  _416
REMARK  161  A    between atoms: _416  and  _417
REMARK  162  A    between atoms: _416  and  _419
REMARK  163  A    between atoms: _419  and  _420
REMARK                            x       y       z     vdW  Elec       q    Type
REMARK                         _______ _______ _______ _____ _____    ______ ____
ROOT
ATOM      1  O   HOH     1     -32.780  37.800  -8.340  0.00  0.00    +0.000 OA
ENDROOT
TORSDOF 0
