REMARK  Name = ../refined-set-2016/3uil/3uil_pocket.pdb
REMARK  96 active torsions:
REMARK  status: ('A' for Active; 'I' for Inactive)
REMARK    1  A    between atoms: _1  and  _3
REMARK    2  A    between atoms: _3  and  _4
REMARK    3  A    between atoms: _3  and  _6
REMARK    4  A    between atoms: _6  and  _7
REMARK    5  A    between atoms: _7  and  _36
REMARK    6  A    between atoms: _8  and  _10
REMARK    7  A    between atoms: _10  and  _11
REMARK    8  A    between atoms: _13  and  _15
REMARK    9  A    between atoms: _15  and  _16
REMARK   10  A    between atoms: _15  and  _18
REMARK   11  A    between atoms: _18  and  _19
REMARK   12  A    between atoms: _24  and  _26
REMARK   13  A    between atoms: _26  and  _27
REMARK   14  A    between atoms: _30  and  _32
REMARK   15  A    between atoms: _32  and  _33
REMARK   16  A    between atoms: _32  and  _35
REMARK   17  A    between atoms: _35  and  _36
REMARK   18  A    between atoms: _37  and  _39
REMARK   19  A    between atoms: _39  and  _40
REMARK   20  A    between atoms: _39  and  _42
REMARK   21  A    between atoms: _45  and  _47
REMARK   22  A    between atoms: _47  and  _48
REMARK   23  A    between atoms: _51  and  _53
REMARK   24  A    between atoms: _53  and  _54
REMARK   25  A    between atoms: _53  and  _56
REMARK   26  A    between atoms: _56  and  _57
REMARK   27  A    between atoms: _60  and  _62
REMARK   28  A    between atoms: _62  and  _63
REMARK   29  A    between atoms: _62  and  _65
REMARK   30  A    between atoms: _65  and  _66
REMARK   31  A    between atoms: _70  and  _71
REMARK   32  A    between atoms: _77  and  _78
REMARK   33  A    between atoms: _83  and  _85
REMARK   34  A    between atoms: _85  and  _86
REMARK   35  A    between atoms: _89  and  _91
REMARK   36  A    between atoms: _91  and  _92
REMARK   37  A    between atoms: _91  and  _94
REMARK   38  A    between atoms: _94  and  _95
REMARK   39  A    between atoms: _95  and  _130
REMARK   40  A    between atoms: _96  and  _98
REMARK   41  A    between atoms: _98  and  _99
REMARK   42  A    between atoms: _101  and  _103
REMARK   43  A    between atoms: _103  and  _104
REMARK   44  A    between atoms: _103  and  _106
REMARK   45  A    between atoms: _106  and  _107
REMARK   46  A    between atoms: _107  and  _108
REMARK   47  A    between atoms: _108  and  _109
REMARK   48  A    between atoms: _118  and  _120
REMARK   49  A    between atoms: _120  and  _121
REMARK   50  A    between atoms: _124  and  _126
REMARK   51  A    between atoms: _126  and  _127
REMARK   52  A    between atoms: _126  and  _129
REMARK   53  A    between atoms: _129  and  _130
REMARK   54  A    between atoms: _131  and  _133
REMARK   55  A    between atoms: _133  and  _134
REMARK   56  A    between atoms: _136  and  _138
REMARK   57  A    between atoms: _138  and  _139
REMARK   58  A    between atoms: _138  and  _141
REMARK   59  A    between atoms: _144  and  _146
REMARK   60  A    between atoms: _146  and  _147
REMARK   61  A    between atoms: _150  and  _152
REMARK   62  A    between atoms: _152  and  _153
REMARK   63  A    between atoms: _152  and  _155
REMARK   64  A    between atoms: _155  and  _156
REMARK   65  A    between atoms: _159  and  _161
REMARK   66  A    between atoms: _161  and  _162
REMARK   67  A    between atoms: _164  and  _166
REMARK   68  A    between atoms: _166  and  _167
REMARK   69  A    between atoms: _171  and  _172
REMARK   70  A    between atoms: _177  and  _179
REMARK   71  A    between atoms: _179  and  _180
REMARK   72  A    between atoms: _179  and  _182
REMARK   73  A    between atoms: _182  and  _183
REMARK   74  A    between atoms: _183  and  _184
REMARK   75  A    between atoms: _184  and  _185
REMARK   76  A    between atoms: _194  and  _196
REMARK   77  A    between atoms: _196  and  _197
REMARK   78  A    between atoms: _196  and  _199
REMARK   79  A    between atoms: _199  and  _200
REMARK   80  A    between atoms: _200  and  _201
REMARK   81  A    between atoms: _201  and  _202
REMARK   82  A    between atoms: _211  and  _213
REMARK   83  A    between atoms: _213  and  _214
REMARK   84  A    between atoms: _213  and  _216
REMARK   85  A    between atoms: _216  and  _217
REMARK   86  A    between atoms: _222  and  _224
REMARK   87  A    between atoms: _224  and  _225
REMARK   88  A    between atoms: _224  and  _227
REMARK   89  A    between atoms: _227  and  _228
REMARK   90  A    between atoms: _228  and  _229
REMARK   91  A    between atoms: _232  and  _234
REMARK   92  A    between atoms: _234  and  _235
REMARK   93  A    between atoms: _234  and  _237
REMARK   94  A    between atoms: _237  and  _238
REMARK   95  A    between atoms: _238  and  _239
REMARK   96  A    between atoms: _239  and  _240
REMARK                            x       y       z     vdW  Elec       q    Type
REMARK                         _______ _______ _______ _____ _____    ______ ____
ROOT
ATOM      1  SG  GLY A   2     -33.777 -29.060 -46.539  0.00  0.00    -0.080 S 
ENDROOT
BRANCH   1   2
ATOM      2  SG  ALA A   1     -35.699 -28.584 -46.092  0.00  0.00    -0.080 S 
BRANCH   2   3
ATOM      3  CB  ALA A   1     -36.707 -30.064 -46.684  0.00  0.00    +0.095 C 
BRANCH   3   4
ATOM      4  CA  ALA A   1     -36.806 -30.197 -48.175  0.00  0.00    +0.156 C 
BRANCH   4   5
ATOM      5  C   ALA A   1     -35.367 -30.159 -48.761  0.00  0.00    +0.239 C 
ATOM      6  O   ALA A   1     -34.668 -31.153 -48.724  0.00  0.00    -0.274 OA
ATOM      7  N   GLY A   2     -34.941 -28.994 -49.243  0.00  0.00    -0.297 N 
ATOM      8  H   GLY A   2     -35.580 -28.174 -49.199  0.00  0.00    +0.150 HD
BRANCH   7   9
ATOM      9  CA  GLY A   2     -33.606 -28.814 -49.836  0.00  0.00    +0.163 C 
BRANCH   9  10
ATOM     10  C   GLY A   2     -33.426 -29.557 -51.133  0.00  0.00    +0.229 C 
ATOM     11  O   GLY A   2     -34.294 -30.381 -51.501  0.00  0.00    -0.286 OA
ENDBRANCH   9  10
ENDBRANCH   7   9
ENDBRANCH   4   5
BRANCH   4  12
ATOM     12  N   ALA A   1     -37.508 -31.452 -48.453  0.00  0.00    -0.237 NA
ATOM     13  H   ALA A   1     -37.075 -32.336 -48.116  0.00  0.00    +0.142 HD
ENDBRANCH   4  12
ENDBRANCH   3   4
ENDBRANCH   2   3
ENDBRANCH   1   2
BRANCH   1  14
ATOM     14  CB  GLY A   2     -33.356 -30.534 -45.453  0.00  0.00    +0.096 C 
BRANCH  14  15
ATOM     15  CA  GLY A   2     -33.652 -30.319 -44.000  0.00  0.00    +0.149 C 
BRANCH  15  16
ATOM     16  N   GLY A   2     -32.621 -29.497 -43.392  0.00  0.00    -0.298 N 
ATOM     17  C   ALA A   1     -32.808 -29.101 -42.138  0.00  0.00    +0.238 C 
ATOM     18  O   ALA A   1     -33.834 -29.376 -41.523  0.00  0.00    -0.274 OA
ATOM     19  H   GLY A   2     -31.766 -29.228 -43.920  0.00  0.00    +0.150 HD
BRANCH  17  20
ATOM     20  CA  ALA A   1     -31.731 -28.265 -41.471  0.00  0.00    +0.145 C 
ATOM     21  CB  ALA A   1     -31.857 -26.821 -41.884  0.00  0.00    +0.028 C 
BRANCH  20  22
ATOM     22  N   ALA A   1     -30.418 -28.807 -41.837  0.00  0.00    -0.238 NA
ATOM     23  H   ALA A   1     -29.732 -28.211 -42.344  0.00  0.00    +0.142 HD
ENDBRANCH  20  22
ENDBRANCH  17  20
ENDBRANCH  15  16
BRANCH  15  24
ATOM     24  C   GLY A   2     -33.826 -31.657 -43.226  0.00  0.00    +0.228 C 
ATOM     25  O   GLY A   2     -34.949 -32.274 -43.169  0.00  0.00    -0.286 OA
ENDBRANCH  15  24
ENDBRANCH  14  15
ENDBRANCH   1  14
TORSDOF 13
REMARK  Name = ../refined-set-2016/3uil/3uil_pocket.pdb
REMARK  96 active torsions:
REMARK  status: ('A' for Active; 'I' for Inactive)
REMARK    1  A    between atoms: _1  and  _3
REMARK    2  A    between atoms: _3  and  _4
REMARK    3  A    between atoms: _3  and  _6
REMARK    4  A    between atoms: _6  and  _7
REMARK    5  A    between atoms: _7  and  _36
REMARK    6  A    between atoms: _8  and  _10
REMARK    7  A    between atoms: _10  and  _11
REMARK    8  A    between atoms: _13  and  _15
REMARK    9  A    between atoms: _15  and  _16
REMARK   10  A    between atoms: _15  and  _18
REMARK   11  A    between atoms: _18  and  _19
REMARK   12  A    between atoms: _24  and  _26
REMARK   13  A    between atoms: _26  and  _27
REMARK   14  A    between atoms: _30  and  _32
REMARK   15  A    between atoms: _32  and  _33
REMARK   16  A    between atoms: _32  and  _35
REMARK   17  A    between atoms: _35  and  _36
REMARK   18  A    between atoms: _37  and  _39
REMARK   19  A    between atoms: _39  and  _40
REMARK   20  A    between atoms: _39  and  _42
REMARK   21  A    between atoms: _45  and  _47
REMARK   22  A    between atoms: _47  and  _48
REMARK   23  A    between atoms: _51  and  _53
REMARK   24  A    between atoms: _53  and  _54
REMARK   25  A    between atoms: _53  and  _56
REMARK   26  A    between atoms: _56  and  _57
REMARK   27  A    between atoms: _60  and  _62
REMARK   28  A    between atoms: _62  and  _63
REMARK   29  A    between atoms: _62  and  _65
REMARK   30  A    between atoms: _65  and  _66
REMARK   31  A    between atoms: _70  and  _71
REMARK   32  A    between atoms: _77  and  _78
REMARK   33  A    between atoms: _83  and  _85
REMARK   34  A    between atoms: _85  and  _86
REMARK   35  A    between atoms: _89  and  _91
REMARK   36  A    between atoms: _91  and  _92
REMARK   37  A    between atoms: _91  and  _94
REMARK   38  A    between atoms: _94  and  _95
REMARK   39  A    between atoms: _95  and  _130
REMARK   40  A    between atoms: _96  and  _98
REMARK   41  A    between atoms: _98  and  _99
REMARK   42  A    between atoms: _101  and  _103
REMARK   43  A    between atoms: _103  and  _104
REMARK   44  A    between atoms: _103  and  _106
REMARK   45  A    between atoms: _106  and  _107
REMARK   46  A    between atoms: _107  and  _108
REMARK   47  A    between atoms: _108  and  _109
REMARK   48  A    between atoms: _118  and  _120
REMARK   49  A    between atoms: _120  and  _121
REMARK   50  A    between atoms: _124  and  _126
REMARK   51  A    between atoms: _126  and  _127
REMARK   52  A    between atoms: _126  and  _129
REMARK   53  A    between atoms: _129  and  _130
REMARK   54  A    between atoms: _131  and  _133
REMARK   55  A    between atoms: _133  and  _134
REMARK   56  A    between atoms: _136  and  _138
REMARK   57  A    between atoms: _138  and  _139
REMARK   58  A    between atoms: _138  and  _141
REMARK   59  A    between atoms: _144  and  _146
REMARK   60  A    between atoms: _146  and  _147
REMARK   61  A    between atoms: _150  and  _152
REMARK   62  A    between atoms: _152  and  _153
REMARK   63  A    between atoms: _152  and  _155
REMARK   64  A    between atoms: _155  and  _156
REMARK   65  A    between atoms: _159  and  _161
REMARK   66  A    between atoms: _161  and  _162
REMARK   67  A    between atoms: _164  and  _166
REMARK   68  A    between atoms: _166  and  _167
REMARK   69  A    between atoms: _171  and  _172
REMARK   70  A    between atoms: _177  and  _179
REMARK   71  A    between atoms: _179  and  _180
REMARK   72  A    between atoms: _179  and  _182
REMARK   73  A    between atoms: _182  and  _183
REMARK   74  A    between atoms: _183  and  _184
REMARK   75  A    between atoms: _184  and  _185
REMARK   76  A    between atoms: _194  and  _196
REMARK   77  A    between atoms: _196  and  _197
REMARK   78  A    between atoms: _196  and  _199
REMARK   79  A    between atoms: _199  and  _200
REMARK   80  A    between atoms: _200  and  _201
REMARK   81  A    between atoms: _201  and  _202
REMARK   82  A    between atoms: _211  and  _213
REMARK   83  A    between atoms: _213  and  _214
REMARK   84  A    between atoms: _213  and  _216
REMARK   85  A    between atoms: _216  and  _217
REMARK   86  A    between atoms: _222  and  _224
REMARK   87  A    between atoms: _224  and  _225
REMARK   88  A    between atoms: _224  and  _227
REMARK   89  A    between atoms: _227  and  _228
REMARK   90  A    between atoms: _228  and  _229
REMARK   91  A    between atoms: _232  and  _234
REMARK   92  A    between atoms: _234  and  _235
REMARK   93  A    between atoms: _234  and  _237
REMARK   94  A    between atoms: _237  and  _238
REMARK   95  A    between atoms: _238  and  _239
REMARK   96  A    between atoms: _239  and  _240
REMARK                            x       y       z     vdW  Elec       q    Type
REMARK                         _______ _______ _______ _____ _____    ______ ____
ROOT
ATOM      1  CB  ASN A   1     -28.712 -26.324 -46.948  0.00  0.00    +0.110 C 
ENDROOT
BRANCH   1   2
ATOM      2  CG  ASN A   1     -29.455 -25.105 -47.262  0.00  0.00    +0.221 C 
ATOM      3  OD1 ASN A   1     -30.091 -24.484 -46.376  0.00  0.00    -0.275 OA
ATOM      4  ND2 ASN A   1     -29.396 -24.714 -48.514  0.00  0.00    -0.329 N 
ATOM      5 HD21 ASN A   1     -29.892 -23.850 -48.813  0.00  0.00    +0.145 HD
ATOM      6 HD22 ASN A   1     -28.853 -25.268 -49.207  0.00  0.00    +0.145 HD
ENDBRANCH   1   2
BRANCH   1   7
ATOM      7  CA  ASN A   1     -28.770 -26.665 -45.470  0.00  0.00    +0.142 C 
BRANCH   7   8
ATOM      8  N   ASN A   1     -27.458 -26.528 -44.897  0.00  0.00    -0.239 NA
ATOM      9  H   ASN A   1     -26.683 -26.190 -45.502  0.00  0.00    +0.142 HD
ENDBRANCH   7   8
BRANCH   7  10
ATOM     10  C   ASN A   1     -29.292 -28.029 -45.434  0.00  0.00    +0.225 C 
ATOM     11  O   ASN A   1     -30.400 -28.254 -44.954  0.00  0.00    -0.287 OA
ENDBRANCH   7  10
ENDBRANCH   1   7
TORSDOF 4
REMARK  Name = ../refined-set-2016/3uil/3uil_pocket.pdb
REMARK  96 active torsions:
REMARK  status: ('A' for Active; 'I' for Inactive)
REMARK    1  A    between atoms: _1  and  _3
REMARK    2  A    between atoms: _3  and  _4
REMARK    3  A    between atoms: _3  and  _6
REMARK    4  A    between atoms: _6  and  _7
REMARK    5  A    between atoms: _7  and  _36
REMARK    6  A    between atoms: _8  and  _10
REMARK    7  A    between atoms: _10  and  _11
REMARK    8  A    between atoms: _13  and  _15
REMARK    9  A    between atoms: _15  and  _16
REMARK   10  A    between atoms: _15  and  _18
REMARK   11  A    between atoms: _18  and  _19
REMARK   12  A    between atoms: _24  and  _26
REMARK   13  A    between atoms: _26  and  _27
REMARK   14  A    between atoms: _30  and  _32
REMARK   15  A    between atoms: _32  and  _33
REMARK   16  A    between atoms: _32  and  _35
REMARK   17  A    between atoms: _35  and  _36
REMARK   18  A    between atoms: _37  and  _39
REMARK   19  A    between atoms: _39  and  _40
REMARK   20  A    between atoms: _39  and  _42
REMARK   21  A    between atoms: _45  and  _47
REMARK   22  A    between atoms: _47  and  _48
REMARK   23  A    between atoms: _51  and  _53
REMARK   24  A    between atoms: _53  and  _54
REMARK   25  A    between atoms: _53  and  _56
REMARK   26  A    between atoms: _56  and  _57
REMARK   27  A    between atoms: _60  and  _62
REMARK   28  A    between atoms: _62  and  _63
REMARK   29  A    between atoms: _62  and  _65
REMARK   30  A    between atoms: _65  and  _66
REMARK   31  A    between atoms: _70  and  _71
REMARK   32  A    between atoms: _77  and  _78
REMARK   33  A    between atoms: _83  and  _85
REMARK   34  A    between atoms: _85  and  _86
REMARK   35  A    between atoms: _89  and  _91
REMARK   36  A    between atoms: _91  and  _92
REMARK   37  A    between atoms: _91  and  _94
REMARK   38  A    between atoms: _94  and  _95
REMARK   39  A    between atoms: _95  and  _130
REMARK   40  A    between atoms: _96  and  _98
REMARK   41  A    between atoms: _98  and  _99
REMARK   42  A    between atoms: _101  and  _103
REMARK   43  A    between atoms: _103  and  _104
REMARK   44  A    between atoms: _103  and  _106
REMARK   45  A    between atoms: _106  and  _107
REMARK   46  A    between atoms: _107  and  _108
REMARK   47  A    between atoms: _108  and  _109
REMARK   48  A    between atoms: _118  and  _120
REMARK   49  A    between atoms: _120  and  _121
REMARK   50  A    between atoms: _124  and  _126
REMARK   51  A    between atoms: _126  and  _127
REMARK   52  A    between atoms: _126  and  _129
REMARK   53  A    between atoms: _129  and  _130
REMARK   54  A    between atoms: _131  and  _133
REMARK   55  A    between atoms: _133  and  _134
REMARK   56  A    between atoms: _136  and  _138
REMARK   57  A    between atoms: _138  and  _139
REMARK   58  A    between atoms: _138  and  _141
REMARK   59  A    between atoms: _144  and  _146
REMARK   60  A    between atoms: _146  and  _147
REMARK   61  A    between atoms: _150  and  _152
REMARK   62  A    between atoms: _152  and  _153
REMARK   63  A    between atoms: _152  and  _155
REMARK   64  A    between atoms: _155  and  _156
REMARK   65  A    between atoms: _159  and  _161
REMARK   66  A    between atoms: _161  and  _162
REMARK   67  A    between atoms: _164  and  _166
REMARK   68  A    between atoms: _166  and  _167
REMARK   69  A    between atoms: _171  and  _172
REMARK   70  A    between atoms: _177  and  _179
REMARK   71  A    between atoms: _179  and  _180
REMARK   72  A    between atoms: _179  and  _182
REMARK   73  A    between atoms: _182  and  _183
REMARK   74  A    between atoms: _183  and  _184
REMARK   75  A    between atoms: _184  and  _185
REMARK   76  A    between atoms: _194  and  _196
REMARK   77  A    between atoms: _196  and  _197
REMARK   78  A    between atoms: _196  and  _199
REMARK   79  A    between atoms: _199  and  _200
REMARK   80  A    between atoms: _200  and  _201
REMARK   81  A    between atoms: _201  and  _202
REMARK   82  A    between atoms: _211  and  _213
REMARK   83  A    between atoms: _213  and  _214
REMARK   84  A    between atoms: _213  and  _216
REMARK   85  A    between atoms: _216  and  _217
REMARK   86  A    between atoms: _222  and  _224
REMARK   87  A    between atoms: _224  and  _225
REMARK   88  A    between atoms: _224  and  _227
REMARK   89  A    between atoms: _227  and  _228
REMARK   90  A    between atoms: _228  and  _229
REMARK   91  A    between atoms: _232  and  _234
REMARK   92  A    between atoms: _234  and  _235
REMARK   93  A    between atoms: _234  and  _237
REMARK   94  A    between atoms: _237  and  _238
REMARK   95  A    between atoms: _238  and  _239
REMARK   96  A    between atoms: _239  and  _240
REMARK                            x       y       z     vdW  Elec       q    Type
REMARK                         _______ _______ _______ _____ _____    ______ ____
ROOT
ATOM      1  CA  ALA A   2     -37.427 -30.741 -41.039  0.00  0.00    +0.149 C 
ATOM      2  CB  ALA A   2     -37.310 -29.748 -42.272  0.00  0.00    +0.031 C 
ENDROOT
BRANCH   1   5
ATOM      3  C   VAL A   1     -35.891 -31.811 -39.412  0.00  0.00    +0.238 C 
ATOM      4  O   VAL A   1     -36.790 -32.433 -38.860  0.00  0.00    -0.274 OA
ATOM      5  N   ALA A   2     -36.094 -31.003 -40.462  0.00  0.00    -0.297 N 
ATOM      6  H   ALA A   2     -35.270 -30.537 -40.892  0.00  0.00    +0.150 HD
BRANCH   3   7
ATOM      7  CA  VAL A   1     -34.433 -31.922 -38.928  0.00  0.00    +0.145 C 
BRANCH   7   8
ATOM      8  CB  VAL A   1     -34.025 -30.612 -38.267  0.00  0.00    +0.025 C 
ATOM      9  CG2 VAL A   1     -35.009 -30.201 -37.109  0.00  0.00    +0.002 C 
ATOM     10  CG1 VAL A   1     -32.606 -30.695 -37.785  0.00  0.00    +0.002 C 
ENDBRANCH   7   8
BRANCH   7  11
ATOM     11  N   VAL A   1     -33.536 -32.214 -40.003  0.00  0.00    -0.238 NA
ATOM     12  H   VAL A   1     -32.764 -31.549 -40.210  0.00  0.00    +0.142 HD
ENDBRANCH   7  11
ENDBRANCH   3   7
ENDBRANCH   1   5
BRANCH   1  13
ATOM     13  C   ALA A   2     -38.118 -32.079 -41.443  0.00  0.00    +0.241 C 
ATOM     14  O   ALA A   2     -39.303 -32.293 -41.121  0.00  0.00    -0.273 OA
ATOM     15  N   LEU A   3     -37.377 -32.981 -42.097  0.00  0.00    -0.298 N 
ATOM     16  H   LEU A   3     -36.406 -32.753 -42.392  0.00  0.00    +0.150 HD
BRANCH  15  17
ATOM     17  CA  LEU A   3     -37.948 -34.280 -42.388  0.00  0.00    +0.137 C 
BRANCH  17  18
ATOM     18  C   LEU A   3     -38.171 -35.134 -41.174  0.00  0.00    +0.227 C 
ATOM     19  O   LEU A   3     -38.961 -36.041 -41.208  0.00  0.00    -0.286 OA
ENDBRANCH  17  18
BRANCH  17  20
ATOM     20  CB  LEU A   3     -37.072 -35.048 -43.362  0.00  0.00    +0.028 C 
BRANCH  20  21
ATOM     21  CG  LEU A   3     -37.114 -34.485 -44.772  0.00  0.00    +0.002 C 
ATOM     22  CD2 LEU A   3     -35.830 -34.938 -45.459  0.00  0.00    +0.000 C 
ATOM     23  CD1 LEU A   3     -38.400 -35.044 -45.490  0.00  0.00    +0.000 C 
ENDBRANCH  20  21
ENDBRANCH  17  20
ENDBRANCH  15  17
ENDBRANCH   1  13
TORSDOF 9
REMARK  Name = ../refined-set-2016/3uil/3uil_pocket.pdb
REMARK  96 active torsions:
REMARK  status: ('A' for Active; 'I' for Inactive)
REMARK    1  A    between atoms: _1  and  _3
REMARK    2  A    between atoms: _3  and  _4
REMARK    3  A    between atoms: _3  and  _6
REMARK    4  A    between atoms: _6  and  _7
REMARK    5  A    between atoms: _7  and  _36
REMARK    6  A    between atoms: _8  and  _10
REMARK    7  A    between atoms: _10  and  _11
REMARK    8  A    between atoms: _13  and  _15
REMARK    9  A    between atoms: _15  and  _16
REMARK   10  A    between atoms: _15  and  _18
REMARK   11  A    between atoms: _18  and  _19
REMARK   12  A    between atoms: _24  and  _26
REMARK   13  A    between atoms: _26  and  _27
REMARK   14  A    between atoms: _30  and  _32
REMARK   15  A    between atoms: _32  and  _33
REMARK   16  A    between atoms: _32  and  _35
REMARK   17  A    between atoms: _35  and  _36
REMARK   18  A    between atoms: _37  and  _39
REMARK   19  A    between atoms: _39  and  _40
REMARK   20  A    between atoms: _39  and  _42
REMARK   21  A    between atoms: _45  and  _47
REMARK   22  A    between atoms: _47  and  _48
REMARK   23  A    between atoms: _51  and  _53
REMARK   24  A    between atoms: _53  and  _54
REMARK   25  A    between atoms: _53  and  _56
REMARK   26  A    between atoms: _56  and  _57
REMARK   27  A    between atoms: _60  and  _62
REMARK   28  A    between atoms: _62  and  _63
REMARK   29  A    between atoms: _62  and  _65
REMARK   30  A    between atoms: _65  and  _66
REMARK   31  A    between atoms: _70  and  _71
REMARK   32  A    between atoms: _77  and  _78
REMARK   33  A    between atoms: _83  and  _85
REMARK   34  A    between atoms: _85  and  _86
REMARK   35  A    between atoms: _89  and  _91
REMARK   36  A    between atoms: _91  and  _92
REMARK   37  A    between atoms: _91  and  _94
REMARK   38  A    between atoms: _94  and  _95
REMARK   39  A    between atoms: _95  and  _130
REMARK   40  A    between atoms: _96  and  _98
REMARK   41  A    between atoms: _98  and  _99
REMARK   42  A    between atoms: _101  and  _103
REMARK   43  A    between atoms: _103  and  _104
REMARK   44  A    between atoms: _103  and  _106
REMARK   45  A    between atoms: _106  and  _107
REMARK   46  A    between atoms: _107  and  _108
REMARK   47  A    between atoms: _108  and  _109
REMARK   48  A    between atoms: _118  and  _120
REMARK   49  A    between atoms: _120  and  _121
REMARK   50  A    between atoms: _124  and  _126
REMARK   51  A    between atoms: _126  and  _127
REMARK   52  A    between atoms: _126  and  _129
REMARK   53  A    between atoms: _129  and  _130
REMARK   54  A    between atoms: _131  and  _133
REMARK   55  A    between atoms: _133  and  _134
REMARK   56  A    between atoms: _136  and  _138
REMARK   57  A    between atoms: _138  and  _139
REMARK   58  A    between atoms: _138  and  _141
REMARK   59  A    between atoms: _144  and  _146
REMARK   60  A    between atoms: _146  and  _147
REMARK   61  A    between atoms: _150  and  _152
REMARK   62  A    between atoms: _152  and  _153
REMARK   63  A    between atoms: _152  and  _155
REMARK   64  A    between atoms: _155  and  _156
REMARK   65  A    between atoms: _159  and  _161
REMARK   66  A    between atoms: _161  and  _162
REMARK   67  A    between atoms: _164  and  _166
REMARK   68  A    between atoms: _166  and  _167
REMARK   69  A    between atoms: _171  and  _172
REMARK   70  A    between atoms: _177  and  _179
REMARK   71  A    between atoms: _179  and  _180
REMARK   72  A    between atoms: _179  and  _182
REMARK   73  A    between atoms: _182  and  _183
REMARK   74  A    between atoms: _183  and  _184
REMARK   75  A    between atoms: _184  and  _185
REMARK   76  A    between atoms: _194  and  _196
REMARK   77  A    between atoms: _196  and  _197
REMARK   78  A    between atoms: _196  and  _199
REMARK   79  A    between atoms: _199  and  _200
REMARK   80  A    between atoms: _200  and  _201
REMARK   81  A    between atoms: _201  and  _202
REMARK   82  A    between atoms: _211  and  _213
REMARK   83  A    between atoms: _213  and  _214
REMARK   84  A    between atoms: _213  and  _216
REMARK   85  A    between atoms: _216  and  _217
REMARK   86  A    between atoms: _222  and  _224
REMARK   87  A    between atoms: _224  and  _225
REMARK   88  A    between atoms: _224  and  _227
REMARK   89  A    between atoms: _227  and  _228
REMARK   90  A    between atoms: _228  and  _229
REMARK   91  A    between atoms: _232  and  _234
REMARK   92  A    between atoms: _234  and  _235
REMARK   93  A    between atoms: _234  and  _237
REMARK   94  A    between atoms: _237  and  _238
REMARK   95  A    between atoms: _238  and  _239
REMARK   96  A    between atoms: _239  and  _240
REMARK                            x       y       z     vdW  Elec       q    Type
REMARK                         _______ _______ _______ _____ _____    ______ ____
ROOT
ATOM      1  CA  CYS A   2     -37.785 -21.911 -48.590  0.00  0.00    +0.160 C 
ENDROOT
BRANCH   1   2
ATOM      2  C   CYS A   2     -38.398 -20.562 -48.500  0.00  0.00    +0.242 C 
ATOM      3  O   CYS A   2     -38.279 -19.893 -47.476  0.00  0.00    -0.273 OA
ATOM      4  N   GLY A   3     -39.109 -20.188 -49.561  0.00  0.00    -0.295 N 
ATOM      5  H   GLY A   3     -39.112 -20.781 -50.415  0.00  0.00    +0.150 HD
BRANCH   4   6
ATOM      6  CA  GLY A   3     -39.869 -18.977 -49.535  0.00  0.00    +0.176 C 
BRANCH   6   7
ATOM      7  C   GLY A   3     -40.864 -19.076 -48.403  0.00  0.00    +0.243 C 
ATOM      8  O   GLY A   3     -40.866 -18.261 -47.469  0.00  0.00    -0.273 OA
ATOM      9  N   VAL A   4     -41.732 -20.077 -48.511  0.00  0.00    -0.297 N 
ATOM     10  H   VAL A   4     -41.640 -20.722 -49.322  0.00  0.00    +0.150 HD
BRANCH   9  11
ATOM     11  CA  VAL A   4     -42.818 -20.324 -47.545  0.00  0.00    +0.149 C 
BRANCH  11  12
ATOM     12  C   VAL A   4     -42.282 -20.442 -46.113  0.00  0.00    +0.241 C 
ATOM     13  O   VAL A   4     -42.742 -19.744 -45.202  0.00  0.00    -0.273 OA
ATOM     14  N   ALA A   5     -41.271 -21.302 -45.969  0.00  0.00    -0.297 N 
ATOM     15  H   ALA A   5     -40.990 -21.855 -46.804  0.00  0.00    +0.150 HD
BRANCH  14  16
ATOM     16  CA  ALA A   5     -40.535 -21.525 -44.741  0.00  0.00    +0.149 C 
ATOM     17  CB  ALA A   5     -39.323 -22.432 -45.027  0.00  0.00    +0.031 C 
BRANCH  16  18
ATOM     18  C   ALA A   5     -40.082 -20.233 -44.082  0.00  0.00    +0.241 C 
ATOM     19  O   ALA A   5     -40.273 -20.048 -42.876  0.00  0.00    -0.273 OA
ATOM     20  N   GLY A   6     -39.465 -19.346 -44.852  0.00  0.00    -0.297 N 
ATOM     21  H   GLY A   6     -39.149 -19.618 -45.805  0.00  0.00    +0.150 HD
BRANCH  20  22
ATOM     22  CA  GLY A   6     -39.229 -17.994 -44.367  0.00  0.00    +0.149 C 
BRANCH  22  23
ATOM     23  C   GLY A   6     -40.536 -17.280 -43.974  0.00  0.00    +0.241 C 
ATOM     24  O   GLY A   6     -40.593 -16.609 -42.931  0.00  0.00    -0.273 OA
ATOM     25  N   GLY A   7     -41.582 -17.418 -44.783  0.00  0.00    -0.295 N 
ATOM     26  H   GLY A   7     -41.551 -18.099 -45.569  0.00  0.00    +0.150 HD
BRANCH  25  27
ATOM     27  CA  GLY A   7     -42.790 -16.596 -44.557  0.00  0.00    +0.176 C 
BRANCH  27  28
ATOM     28  C   GLY A   7     -42.904 -15.466 -45.564  0.00  0.00    +0.243 C 
ATOM     29  O   GLY A   7     -43.788 -14.601 -45.491  0.00  0.00    -0.273 OA
ATOM     30  N   ALA A   8     -41.950 -15.479 -46.498  0.00  0.00    -0.298 N 
ATOM     31  H   ALA A   8     -41.183 -16.174 -46.397  0.00  0.00    +0.150 HD
BRANCH  30  32
ATOM     32  CA  ALA A   8     -41.910 -14.586 -47.651  0.00  0.00    +0.137 C 
ATOM     33  CB  ALA A   8     -40.593 -14.751 -48.307  0.00  0.00    +0.030 C 
BRANCH  32  34
ATOM     34  C   ALA A   8     -43.004 -14.892 -48.655  0.00  0.00    +0.227 C 
ATOM     35  O   ALA A   8     -43.580 -13.977 -49.220  0.00  0.00    -0.286 OA
ENDBRANCH  32  34
ENDBRANCH  30  32
ENDBRANCH  27  28
ENDBRANCH  25  27
ENDBRANCH  22  23
BRANCH  22  36
ATOM     36  CB  GLY A   6     -38.446 -17.166 -45.398  0.00  0.00    +0.029 C 
BRANCH  36  37
ATOM     37  CG  GLY A   6     -36.919 -17.291 -45.285  0.00  0.00    +0.002 C 
ATOM     38  CD2 GLY A   6     -36.401 -16.976 -43.845  0.00  0.00    +0.000 C 
ATOM     39  CD1 GLY A   6     -36.207 -16.416 -46.355  0.00  0.00    +0.000 C 
ENDBRANCH  36  37
ENDBRANCH  22  36
ENDBRANCH  20  22
ENDBRANCH  16  18
ENDBRANCH  14  16
ENDBRANCH  11  12
BRANCH  11  40
ATOM     40  CB  VAL A   4     -43.626 -21.574 -47.982  0.00  0.00    +0.027 C 
ATOM     41  CG2 VAL A   4     -44.116 -22.404 -46.796  0.00  0.00    +0.002 C 
ATOM     42  CG1 VAL A   4     -44.767 -21.138 -48.817  0.00  0.00    +0.002 C 
ENDBRANCH  11  40
ENDBRANCH   9  11
ENDBRANCH   6   7
ENDBRANCH   4   6
ENDBRANCH   1   2
BRANCH   1  43
ATOM     43  N   CYS A   2     -38.569 -22.672 -49.552  0.00  0.00    -0.297 N 
ATOM     44  C   ALA A   1     -39.844 -23.031 -49.322  0.00  0.00    +0.238 C 
ATOM     45  O   ALA A   1     -40.436 -22.783 -48.254  0.00  0.00    -0.274 OA
ATOM     46  H   CYS A   2     -38.126 -22.948 -50.451  0.00  0.00    +0.150 HD
BRANCH  44  47
ATOM     47  CA  ALA A   1     -40.542 -23.768 -50.482  0.00  0.00    +0.145 C 
ATOM     48  CB  ALA A   1     -40.229 -25.238 -50.430  0.00  0.00    +0.028 C 
BRANCH  47  49
ATOM     49  N   ALA A   1     -40.149 -23.211 -51.789  0.00  0.00    -0.238 NA
ATOM     50  H   ALA A   1     -39.577 -23.793 -52.434  0.00  0.00    +0.142 HD
ENDBRANCH  47  49
ENDBRANCH  44  47
ENDBRANCH   1  43
BRANCH   1  51
ATOM     51  CB  CYS A   2     -36.315 -21.826 -48.968  0.00  0.00    +0.098 C 
BRANCH  51  52
ATOM     52  SG  CYS A   2     -35.494 -20.298 -48.356  0.00  0.00    -0.080 S 
BRANCH  52  53
ATOM     53  SG  ALA A   5     -35.161 -20.538 -46.319  0.00  0.00    -0.080 S 
BRANCH  53  54
ATOM     54  CB  ALA A   5     -34.149 -22.160 -46.259  0.00  0.00    +0.098 C 
BRANCH  54  55
ATOM     55  CA  ALA A   5     -32.621 -21.978 -46.391  0.00  0.00    +0.160 C 
BRANCH  55  57
ATOM     56  C   VAL A   4     -30.938 -20.403 -45.685  0.00  0.00    +0.241 C 
ATOM     57  N   ALA A   5     -32.181 -20.854 -45.585  0.00  0.00    -0.296 N 
ATOM     58  H   ALA A   5     -32.844 -20.400 -44.925  0.00  0.00    +0.150 HD
ATOM     59  O   VAL A   4     -30.028 -21.062 -46.246  0.00  0.00    -0.273 OA
BRANCH  56  60
ATOM     60  CA  VAL A   4     -30.659 -19.027 -44.948  0.00  0.00    +0.149 C 
ATOM     61  CB  VAL A   4     -31.160 -17.810 -45.779  0.00  0.00    +0.031 C 
BRANCH  60  64
ATOM     62  C   GLY A   3     -28.718 -19.844 -43.728  0.00  0.00    +0.241 C 
ATOM     63  O   GLY A   3     -29.375 -20.720 -43.152  0.00  0.00    -0.273 OA
ATOM     64  N   VAL A   4     -29.254 -18.964 -44.570  0.00  0.00    -0.297 N 
ATOM     65  H   VAL A   4     -28.655 -18.213 -44.968  0.00  0.00    +0.150 HD
BRANCH  62  72
ATOM     66  C   CYS A   2     -27.247 -20.415 -41.129  0.00  0.00    +0.244 C 
ATOM     67  O   CYS A   2     -28.157 -19.629 -40.845  0.00  0.00    -0.273 OA
ATOM     68  N   GLY A   3     -26.756 -20.555 -42.377  0.00  0.00    -0.272 N 
ATOM     69  CD  GLY A   3     -25.743 -21.534 -42.808  0.00  0.00    +0.094 C 
ATOM     70  CG  GLY A   3     -25.267 -20.974 -44.106  0.00  0.00    +0.024 C 
ATOM     71  CB  GLY A   3     -26.456 -20.315 -44.695  0.00  0.00    +0.031 C 
ATOM     72  CA  GLY A   3     -27.214 -19.729 -43.496  0.00  0.00    +0.152 C 
BRANCH  66  78
ATOM     73  C   ALA A   1     -25.998 -19.285 -38.727  0.00  0.00    +0.242 C 
ATOM     74  N   CYS A   2     -26.516 -20.537 -38.768  0.00  0.00    -0.272 N 
ATOM     75  CD  CYS A   2     -26.901 -21.383 -37.617  0.00  0.00    +0.094 C 
ATOM     76  CG  CYS A   2     -27.256 -22.705 -38.249  0.00  0.00    +0.024 C 
ATOM     77  CB  CYS A   2     -27.560 -22.428 -39.669  0.00  0.00    +0.031 C 
ATOM     78  CA  CYS A   2     -26.625 -21.274 -40.028  0.00  0.00    +0.152 C 
ATOM     79  O   ALA A   1     -25.444 -18.763 -39.700  0.00  0.00    -0.273 OA
BRANCH  73  80
ATOM     80  CA  ALA A   1     -26.089 -18.509 -37.399  0.00  0.00    +0.156 C 
BRANCH  80  81
ATOM     81  N   ALA A   1     -25.566 -17.145 -37.524  0.00  0.00    -0.238 NA
ATOM     82  H   ALA A   1     -26.197 -16.400 -37.882  0.00  0.00    +0.142 HD
ENDBRANCH  80  81
BRANCH  80  83
ATOM     83  CB  ALA A   1     -27.529 -18.471 -36.854  0.00  0.00    +0.140 C 
BRANCH  83  84
ATOM     84  CG  ALA A   1     -28.565 -18.146 -37.924  0.00  0.00    +0.367 C 
ATOM     85  OD2 ALA A   1     -29.594 -18.853 -37.980  0.00  0.00    -0.246 OA
ATOM     86  OD1 ALA A   1     -28.356 -17.193 -38.705  0.00  0.00    -0.246 OA
ENDBRANCH  83  84
ENDBRANCH  80  83
ENDBRANCH  73  80
ENDBRANCH  66  78
ENDBRANCH  62  72
ENDBRANCH  60  64
ENDBRANCH  56  60
ENDBRANCH  55  57
BRANCH  55  87
ATOM     87  C   ALA A   5     -32.256 -21.607 -47.827  0.00  0.00    +0.242 C 
ATOM     88  O   ALA A   5     -31.967 -20.442 -48.126  0.00  0.00    -0.273 OA
ATOM     89  N   GLY A   6     -32.248 -22.613 -48.704  0.00  0.00    -0.296 N 
ATOM     90  H   GLY A   6     -32.205 -23.587 -48.342  0.00  0.00    +0.150 HD
BRANCH  89  91
ATOM     91  CA  GLY A   6     -32.297 -22.409 -50.147  0.00  0.00    +0.163 C 
BRANCH  91  92
ATOM     92  C   GLY A   6     -30.935 -22.464 -50.790  0.00  0.00    +0.229 C 
ATOM     93  O   GLY A   6     -30.825 -22.462 -52.047  0.00  0.00    -0.286 OA
ENDBRANCH  91  92
ENDBRANCH  89  91
ENDBRANCH  55  87
ENDBRANCH  54  55
ENDBRANCH  53  54
ENDBRANCH  52  53
ENDBRANCH  51  52
ENDBRANCH   1  51
TORSDOF 36
REMARK  Name = ../refined-set-2016/3uil/3uil_pocket.pdb
REMARK  96 active torsions:
REMARK  status: ('A' for Active; 'I' for Inactive)
REMARK    1  A    between atoms: _1  and  _3
REMARK    2  A    between atoms: _3  and  _4
REMARK    3  A    between atoms: _3  and  _6
REMARK    4  A    between atoms: _6  and  _7
REMARK    5  A    between atoms: _7  and  _36
REMARK    6  A    between atoms: _8  and  _10
REMARK    7  A    between atoms: _10  and  _11
REMARK    8  A    between atoms: _13  and  _15
REMARK    9  A    between atoms: _15  and  _16
REMARK   10  A    between atoms: _15  and  _18
REMARK   11  A    between atoms: _18  and  _19
REMARK   12  A    between atoms: _24  and  _26
REMARK   13  A    between atoms: _26  and  _27
REMARK   14  A    between atoms: _30  and  _32
REMARK   15  A    between atoms: _32  and  _33
REMARK   16  A    between atoms: _32  and  _35
REMARK   17  A    between atoms: _35  and  _36
REMARK   18  A    between atoms: _37  and  _39
REMARK   19  A    between atoms: _39  and  _40
REMARK   20  A    between atoms: _39  and  _42
REMARK   21  A    between atoms: _45  and  _47
REMARK   22  A    between atoms: _47  and  _48
REMARK   23  A    between atoms: _51  and  _53
REMARK   24  A    between atoms: _53  and  _54
REMARK   25  A    between atoms: _53  and  _56
REMARK   26  A    between atoms: _56  and  _57
REMARK   27  A    between atoms: _60  and  _62
REMARK   28  A    between atoms: _62  and  _63
REMARK   29  A    between atoms: _62  and  _65
REMARK   30  A    between atoms: _65  and  _66
REMARK   31  A    between atoms: _70  and  _71
REMARK   32  A    between atoms: _77  and  _78
REMARK   33  A    between atoms: _83  and  _85
REMARK   34  A    between atoms: _85  and  _86
REMARK   35  A    between atoms: _89  and  _91
REMARK   36  A    between atoms: _91  and  _92
REMARK   37  A    between atoms: _91  and  _94
REMARK   38  A    between atoms: _94  and  _95
REMARK   39  A    between atoms: _95  and  _130
REMARK   40  A    between atoms: _96  and  _98
REMARK   41  A    between atoms: _98  and  _99
REMARK   42  A    between atoms: _101  and  _103
REMARK   43  A    between atoms: _103  and  _104
REMARK   44  A    between atoms: _103  and  _106
REMARK   45  A    between atoms: _106  and  _107
REMARK   46  A    between atoms: _107  and  _108
REMARK   47  A    between atoms: _108  and  _109
REMARK   48  A    between atoms: _118  and  _120
REMARK   49  A    between atoms: _120  and  _121
REMARK   50  A    between atoms: _124  and  _126
REMARK   51  A    between atoms: _126  and  _127
REMARK   52  A    between atoms: _126  and  _129
REMARK   53  A    between atoms: _129  and  _130
REMARK   54  A    between atoms: _131  and  _133
REMARK   55  A    between atoms: _133  and  _134
REMARK   56  A    between atoms: _136  and  _138
REMARK   57  A    between atoms: _138  and  _139
REMARK   58  A    between atoms: _138  and  _141
REMARK   59  A    between atoms: _144  and  _146
REMARK   60  A    between atoms: _146  and  _147
REMARK   61  A    between atoms: _150  and  _152
REMARK   62  A    between atoms: _152  and  _153
REMARK   63  A    between atoms: _152  and  _155
REMARK   64  A    between atoms: _155  and  _156
REMARK   65  A    between atoms: _159  and  _161
REMARK   66  A    between atoms: _161  and  _162
REMARK   67  A    between atoms: _164  and  _166
REMARK   68  A    between atoms: _166  and  _167
REMARK   69  A    between atoms: _171  and  _172
REMARK   70  A    between atoms: _177  and  _179
REMARK   71  A    between atoms: _179  and  _180
REMARK   72  A    between atoms: _179  and  _182
REMARK   73  A    between atoms: _182  and  _183
REMARK   74  A    between atoms: _183  and  _184
REMARK   75  A    between atoms: _184  and  _185
REMARK   76  A    between atoms: _194  and  _196
REMARK   77  A    between atoms: _196  and  _197
REMARK   78  A    between atoms: _196  and  _199
REMARK   79  A    between atoms: _199  and  _200
REMARK   80  A    between atoms: _200  and  _201
REMARK   81  A    between atoms: _201  and  _202
REMARK   82  A    between atoms: _211  and  _213
REMARK   83  A    between atoms: _213  and  _214
REMARK   84  A    between atoms: _213  and  _216
REMARK   85  A    between atoms: _216  and  _217
REMARK   86  A    between atoms: _222  and  _224
REMARK   87  A    between atoms: _224  and  _225
REMARK   88  A    between atoms: _224  and  _227
REMARK   89  A    between atoms: _227  and  _228
REMARK   90  A    between atoms: _228  and  _229
REMARK   91  A    between atoms: _232  and  _234
REMARK   92  A    between atoms: _234  and  _235
REMARK   93  A    between atoms: _234  and  _237
REMARK   94  A    between atoms: _237  and  _238
REMARK   95  A    between atoms: _238  and  _239
REMARK   96  A    between atoms: _239  and  _240
REMARK                            x       y       z     vdW  Elec       q    Type
REMARK                         _______ _______ _______ _____ _____    ______ ____
ROOT
ATOM      1  NE  ARG A   1     -41.428 -11.153 -44.176  0.00  0.00    -0.265 N 
ATOM      2  CZ  ARG A   1     -40.858 -12.354 -44.093  0.00  0.00    +0.342 C 
ATOM      3  NH2 ARG A   1     -41.577 -13.422 -43.761  0.00  0.00    -0.292 N 
ATOM      4 HH21 ARG A   1     -42.593 -13.324 -43.564  0.00  0.00    +0.255 HD
ATOM      5 HH22 ARG A   1     -41.123 -14.356 -43.699  0.00  0.00    +0.255 HD
ATOM      6  NH1 ARG A   1     -39.559 -12.485 -44.329  0.00  0.00    -0.292 N 
ATOM      7 HH11 ARG A   1     -39.111 -13.421 -44.265  0.00  0.00    +0.255 HD
ATOM      8 HH12 ARG A   1     -38.989 -11.651 -44.578  0.00  0.00    +0.255 HD
ATOM      9  HE  ARG A   1     -40.821 -10.347 -44.429  0.00  0.00    +0.259 HD
ENDROOT
BRANCH   1  10
ATOM     10  CD  ARG A   1     -42.847 -10.885 -43.937  0.00  0.00    +0.174 C 
BRANCH  10  11
ATOM     11  CG  ARG A   1     -43.503 -10.087 -45.061  0.00  0.00    +0.045 C 
BRANCH  11  12
ATOM     12  CB  ARG A   1     -43.843 -10.945 -46.282  0.00  0.00    +0.029 C 
BRANCH  12  13
ATOM     13  CA  ARG A   1     -45.070 -10.465 -47.077  0.00  0.00    +0.133 C 
BRANCH  13  14
ATOM     14  N   ARG A   1     -44.992  -9.020 -47.314  0.00  0.00    -0.239 NA
ATOM     15  H   ARG A   1     -44.248  -8.483 -46.824  0.00  0.00    +0.142 HD
ENDBRANCH  13  14
BRANCH  13  16
ATOM     16  C   ARG A   1     -46.358 -10.845 -46.345  0.00  0.00    +0.224 C 
ATOM     17  O   ARG A   1     -46.884 -10.069 -45.510  0.00  0.00    -0.287 OA
ENDBRANCH  13  16
ENDBRANCH  12  13
ENDBRANCH  11  12
ENDBRANCH  10  11
ENDBRANCH   1  10
TORSDOF 6
REMARK  Name = ../refined-set-2016/3uil/3uil_pocket.pdb
REMARK  96 active torsions:
REMARK  status: ('A' for Active; 'I' for Inactive)
REMARK    1  A    between atoms: _1  and  _3
REMARK    2  A    between atoms: _3  and  _4
REMARK    3  A    between atoms: _3  and  _6
REMARK    4  A    between atoms: _6  and  _7
REMARK    5  A    between atoms: _7  and  _36
REMARK    6  A    between atoms: _8  and  _10
REMARK    7  A    between atoms: _10  and  _11
REMARK    8  A    between atoms: _13  and  _15
REMARK    9  A    between atoms: _15  and  _16
REMARK   10  A    between atoms: _15  and  _18
REMARK   11  A    between atoms: _18  and  _19
REMARK   12  A    between atoms: _24  and  _26
REMARK   13  A    between atoms: _26  and  _27
REMARK   14  A    between atoms: _30  and  _32
REMARK   15  A    between atoms: _32  and  _33
REMARK   16  A    between atoms: _32  and  _35
REMARK   17  A    between atoms: _35  and  _36
REMARK   18  A    between atoms: _37  and  _39
REMARK   19  A    between atoms: _39  and  _40
REMARK   20  A    between atoms: _39  and  _42
REMARK   21  A    between atoms: _45  and  _47
REMARK   22  A    between atoms: _47  and  _48
REMARK   23  A    between atoms: _51  and  _53
REMARK   24  A    between atoms: _53  and  _54
REMARK   25  A    between atoms: _53  and  _56
REMARK   26  A    between atoms: _56  and  _57
REMARK   27  A    between atoms: _60  and  _62
REMARK   28  A    between atoms: _62  and  _63
REMARK   29  A    between atoms: _62  and  _65
REMARK   30  A    between atoms: _65  and  _66
REMARK   31  A    between atoms: _70  and  _71
REMARK   32  A    between atoms: _77  and  _78
REMARK   33  A    between atoms: _83  and  _85
REMARK   34  A    between atoms: _85  and  _86
REMARK   35  A    between atoms: _89  and  _91
REMARK   36  A    between atoms: _91  and  _92
REMARK   37  A    between atoms: _91  and  _94
REMARK   38  A    between atoms: _94  and  _95
REMARK   39  A    between atoms: _95  and  _130
REMARK   40  A    between atoms: _96  and  _98
REMARK   41  A    between atoms: _98  and  _99
REMARK   42  A    between atoms: _101  and  _103
REMARK   43  A    between atoms: _103  and  _104
REMARK   44  A    between atoms: _103  and  _106
REMARK   45  A    between atoms: _106  and  _107
REMARK   46  A    between atoms: _107  and  _108
REMARK   47  A    between atoms: _108  and  _109
REMARK   48  A    between atoms: _118  and  _120
REMARK   49  A    between atoms: _120  and  _121
REMARK   50  A    between atoms: _124  and  _126
REMARK   51  A    between atoms: _126  and  _127
REMARK   52  A    between atoms: _126  and  _129
REMARK   53  A    between atoms: _129  and  _130
REMARK   54  A    between atoms: _131  and  _133
REMARK   55  A    between atoms: _133  and  _134
REMARK   56  A    between atoms: _136  and  _138
REMARK   57  A    between atoms: _138  and  _139
REMARK   58  A    between atoms: _138  and  _141
REMARK   59  A    between atoms: _144  and  _146
REMARK   60  A    between atoms: _146  and  _147
REMARK   61  A    between atoms: _150  and  _152
REMARK   62  A    between atoms: _152  and  _153
REMARK   63  A    between atoms: _152  and  _155
REMARK   64  A    between atoms: _155  and  _156
REMARK   65  A    between atoms: _159  and  _161
REMARK   66  A    between atoms: _161  and  _162
REMARK   67  A    between atoms: _164  and  _166
REMARK   68  A    between atoms: _166  and  _167
REMARK   69  A    between atoms: _171  and  _172
REMARK   70  A    between atoms: _177  and  _179
REMARK   71  A    between atoms: _179  and  _180
REMARK   72  A    between atoms: _179  and  _182
REMARK   73  A    between atoms: _182  and  _183
REMARK   74  A    between atoms: _183  and  _184
REMARK   75  A    between atoms: _184  and  _185
REMARK   76  A    between atoms: _194  and  _196
REMARK   77  A    between atoms: _196  and  _197
REMARK   78  A    between atoms: _196  and  _199
REMARK   79  A    between atoms: _199  and  _200
REMARK   80  A    between atoms: _200  and  _201
REMARK   81  A    between atoms: _201  and  _202
REMARK   82  A    between atoms: _211  and  _213
REMARK   83  A    between atoms: _213  and  _214
REMARK   84  A    between atoms: _213  and  _216
REMARK   85  A    between atoms: _216  and  _217
REMARK   86  A    between atoms: _222  and  _224
REMARK   87  A    between atoms: _224  and  _225
REMARK   88  A    between atoms: _224  and  _227
REMARK   89  A    between atoms: _227  and  _228
REMARK   90  A    between atoms: _228  and  _229
REMARK   91  A    between atoms: _232  and  _234
REMARK   92  A    between atoms: _234  and  _235
REMARK   93  A    between atoms: _234  and  _237
REMARK   94  A    between atoms: _237  and  _238
REMARK   95  A    between atoms: _238  and  _239
REMARK   96  A    between atoms: _239  and  _240
REMARK                            x       y       z     vdW  Elec       q    Type
REMARK                         _______ _______ _______ _____ _____    ______ ____
ROOT
ATOM      1  N   PRO A   1     -32.671 -11.206 -35.592  0.00  0.00    -0.212 NA
ATOM      2  CA  PRO A   1     -33.789 -11.207 -34.652  0.00  0.00    +0.137 C 
ATOM      3  CB  PRO A   1     -35.016 -11.089 -35.567  0.00  0.00    +0.027 C 
ATOM      4  CG  PRO A   1     -34.597 -11.878 -36.798  0.00  0.00    +0.021 C 
ATOM      5  CD  PRO A   1     -33.087 -11.711 -36.917  0.00  0.00    +0.089 C 
ENDROOT
BRANCH   2   6
ATOM      6  C   PRO A   1     -33.807 -12.597 -33.964  0.00  0.00    +0.224 C 
ATOM      7  O   PRO A   1     -33.524 -13.628 -34.609  0.00  0.00    -0.287 OA
ENDBRANCH   2   6
TORSDOF 1
REMARK  Name = ../refined-set-2016/3uil/3uil_pocket.pdb
REMARK  96 active torsions:
REMARK  status: ('A' for Active; 'I' for Inactive)
REMARK    1  A    between atoms: _1  and  _3
REMARK    2  A    between atoms: _3  and  _4
REMARK    3  A    between atoms: _3  and  _6
REMARK    4  A    between atoms: _6  and  _7
REMARK    5  A    between atoms: _7  and  _36
REMARK    6  A    between atoms: _8  and  _10
REMARK    7  A    between atoms: _10  and  _11
REMARK    8  A    between atoms: _13  and  _15
REMARK    9  A    between atoms: _15  and  _16
REMARK   10  A    between atoms: _15  and  _18
REMARK   11  A    between atoms: _18  and  _19
REMARK   12  A    between atoms: _24  and  _26
REMARK   13  A    between atoms: _26  and  _27
REMARK   14  A    between atoms: _30  and  _32
REMARK   15  A    between atoms: _32  and  _33
REMARK   16  A    between atoms: _32  and  _35
REMARK   17  A    between atoms: _35  and  _36
REMARK   18  A    between atoms: _37  and  _39
REMARK   19  A    between atoms: _39  and  _40
REMARK   20  A    between atoms: _39  and  _42
REMARK   21  A    between atoms: _45  and  _47
REMARK   22  A    between atoms: _47  and  _48
REMARK   23  A    between atoms: _51  and  _53
REMARK   24  A    between atoms: _53  and  _54
REMARK   25  A    between atoms: _53  and  _56
REMARK   26  A    between atoms: _56  and  _57
REMARK   27  A    between atoms: _60  and  _62
REMARK   28  A    between atoms: _62  and  _63
REMARK   29  A    between atoms: _62  and  _65
REMARK   30  A    between atoms: _65  and  _66
REMARK   31  A    between atoms: _70  and  _71
REMARK   32  A    between atoms: _77  and  _78
REMARK   33  A    between atoms: _83  and  _85
REMARK   34  A    between atoms: _85  and  _86
REMARK   35  A    between atoms: _89  and  _91
REMARK   36  A    between atoms: _91  and  _92
REMARK   37  A    between atoms: _91  and  _94
REMARK   38  A    between atoms: _94  and  _95
REMARK   39  A    between atoms: _95  and  _130
REMARK   40  A    between atoms: _96  and  _98
REMARK   41  A    between atoms: _98  and  _99
REMARK   42  A    between atoms: _101  and  _103
REMARK   43  A    between atoms: _103  and  _104
REMARK   44  A    between atoms: _103  and  _106
REMARK   45  A    between atoms: _106  and  _107
REMARK   46  A    between atoms: _107  and  _108
REMARK   47  A    between atoms: _108  and  _109
REMARK   48  A    between atoms: _118  and  _120
REMARK   49  A    between atoms: _120  and  _121
REMARK   50  A    between atoms: _124  and  _126
REMARK   51  A    between atoms: _126  and  _127
REMARK   52  A    between atoms: _126  and  _129
REMARK   53  A    between atoms: _129  and  _130
REMARK   54  A    between atoms: _131  and  _133
REMARK   55  A    between atoms: _133  and  _134
REMARK   56  A    between atoms: _136  and  _138
REMARK   57  A    between atoms: _138  and  _139
REMARK   58  A    between atoms: _138  and  _141
REMARK   59  A    between atoms: _144  and  _146
REMARK   60  A    between atoms: _146  and  _147
REMARK   61  A    between atoms: _150  and  _152
REMARK   62  A    between atoms: _152  and  _153
REMARK   63  A    between atoms: _152  and  _155
REMARK   64  A    between atoms: _155  and  _156
REMARK   65  A    between atoms: _159  and  _161
REMARK   66  A    between atoms: _161  and  _162
REMARK   67  A    between atoms: _164  and  _166
REMARK   68  A    between atoms: _166  and  _167
REMARK   69  A    between atoms: _171  and  _172
REMARK   70  A    between atoms: _177  and  _179
REMARK   71  A    between atoms: _179  and  _180
REMARK   72  A    between atoms: _179  and  _182
REMARK   73  A    between atoms: _182  and  _183
REMARK   74  A    between atoms: _183  and  _184
REMARK   75  A    between atoms: _184  and  _185
REMARK   76  A    between atoms: _194  and  _196
REMARK   77  A    between atoms: _196  and  _197
REMARK   78  A    between atoms: _196  and  _199
REMARK   79  A    between atoms: _199  and  _200
REMARK   80  A    between atoms: _200  and  _201
REMARK   81  A    between atoms: _201  and  _202
REMARK   82  A    between atoms: _211  and  _213
REMARK   83  A    between atoms: _213  and  _214
REMARK   84  A    between atoms: _213  and  _216
REMARK   85  A    between atoms: _216  and  _217
REMARK   86  A    between atoms: _222  and  _224
REMARK   87  A    between atoms: _224  and  _225
REMARK   88  A    between atoms: _224  and  _227
REMARK   89  A    between atoms: _227  and  _228
REMARK   90  A    between atoms: _228  and  _229
REMARK   91  A    between atoms: _232  and  _234
REMARK   92  A    between atoms: _234  and  _235
REMARK   93  A    between atoms: _234  and  _237
REMARK   94  A    between atoms: _237  and  _238
REMARK   95  A    between atoms: _238  and  _239
REMARK   96  A    between atoms: _239  and  _240
REMARK                            x       y       z     vdW  Elec       q    Type
REMARK                         _______ _______ _______ _____ _____    ______ ____
ROOT
ATOM      1  NE  ARG A   1     -36.059 -19.687 -35.607  0.00  0.00    -0.265 N 
ATOM      2  HE  ARG A   1     -35.032 -19.835 -35.542  0.00  0.00    +0.259 HD
ATOM      3  CZ  ARG A   1     -36.522 -19.109 -36.734  0.00  0.00    +0.342 C 
ATOM      4  NH2 ARG A   1     -37.821 -18.869 -36.927  0.00  0.00    -0.292 N 
ATOM      5 HH21 ARG A   1     -38.512 -19.130 -36.195  0.00  0.00    +0.255 HD
ATOM      6 HH22 ARG A   1     -38.142 -18.421 -37.809  0.00  0.00    +0.255 HD
ATOM      7  NH1 ARG A   1     -35.653 -18.755 -37.680  0.00  0.00    -0.292 N 
ATOM      8 HH11 ARG A   1     -34.636 -18.926 -37.542  0.00  0.00    +0.255 HD
ATOM      9 HH12 ARG A   1     -35.991 -18.308 -38.556  0.00  0.00    +0.255 HD
ENDROOT
BRANCH   1  10
ATOM     10  CD  ARG A   1     -36.872 -20.130 -34.457  0.00  0.00    +0.174 C 
BRANCH  10  11
ATOM     11  CG  ARG A   1     -37.138 -19.017 -33.395  0.00  0.00    +0.045 C 
BRANCH  11  12
ATOM     12  CB  ARG A   1     -35.913 -18.088 -33.089  0.00  0.00    +0.029 C 
BRANCH  12  13
ATOM     13  CA  ARG A   1     -36.260 -16.832 -32.224  0.00  0.00    +0.133 C 
BRANCH  13  14
ATOM     14  N   ARG A   1     -35.082 -15.981 -31.950  0.00  0.00    -0.239 NA
ATOM     15  H   ARG A   1     -34.153 -16.427 -31.812  0.00  0.00    +0.142 HD
ENDBRANCH  13  14
BRANCH  13  16
ATOM     16  C   ARG A   1     -37.041 -17.275 -30.999  0.00  0.00    +0.224 C 
ATOM     17  O   ARG A   1     -38.250 -17.443 -31.092  0.00  0.00    -0.287 OA
ENDBRANCH  13  16
ENDBRANCH  12  13
ENDBRANCH  11  12
ENDBRANCH  10  11
ENDBRANCH   1  10
TORSDOF 6
REMARK  Name = ../refined-set-2016/3uil/3uil_pocket.pdb
REMARK  96 active torsions:
REMARK  status: ('A' for Active; 'I' for Inactive)
REMARK    1  A    between atoms: _1  and  _3
REMARK    2  A    between atoms: _3  and  _4
REMARK    3  A    between atoms: _3  and  _6
REMARK    4  A    between atoms: _6  and  _7
REMARK    5  A    between atoms: _7  and  _36
REMARK    6  A    between atoms: _8  and  _10
REMARK    7  A    between atoms: _10  and  _11
REMARK    8  A    between atoms: _13  and  _15
REMARK    9  A    between atoms: _15  and  _16
REMARK   10  A    between atoms: _15  and  _18
REMARK   11  A    between atoms: _18  and  _19
REMARK   12  A    between atoms: _24  and  _26
REMARK   13  A    between atoms: _26  and  _27
REMARK   14  A    between atoms: _30  and  _32
REMARK   15  A    between atoms: _32  and  _33
REMARK   16  A    between atoms: _32  and  _35
REMARK   17  A    between atoms: _35  and  _36
REMARK   18  A    between atoms: _37  and  _39
REMARK   19  A    between atoms: _39  and  _40
REMARK   20  A    between atoms: _39  and  _42
REMARK   21  A    between atoms: _45  and  _47
REMARK   22  A    between atoms: _47  and  _48
REMARK   23  A    between atoms: _51  and  _53
REMARK   24  A    between atoms: _53  and  _54
REMARK   25  A    between atoms: _53  and  _56
REMARK   26  A    between atoms: _56  and  _57
REMARK   27  A    between atoms: _60  and  _62
REMARK   28  A    between atoms: _62  and  _63
REMARK   29  A    between atoms: _62  and  _65
REMARK   30  A    between atoms: _65  and  _66
REMARK   31  A    between atoms: _70  and  _71
REMARK   32  A    between atoms: _77  and  _78
REMARK   33  A    between atoms: _83  and  _85
REMARK   34  A    between atoms: _85  and  _86
REMARK   35  A    between atoms: _89  and  _91
REMARK   36  A    between atoms: _91  and  _92
REMARK   37  A    between atoms: _91  and  _94
REMARK   38  A    between atoms: _94  and  _95
REMARK   39  A    between atoms: _95  and  _130
REMARK   40  A    between atoms: _96  and  _98
REMARK   41  A    between atoms: _98  and  _99
REMARK   42  A    between atoms: _101  and  _103
REMARK   43  A    between atoms: _103  and  _104
REMARK   44  A    between atoms: _103  and  _106
REMARK   45  A    between atoms: _106  and  _107
REMARK   46  A    between atoms: _107  and  _108
REMARK   47  A    between atoms: _108  and  _109
REMARK   48  A    between atoms: _118  and  _120
REMARK   49  A    between atoms: _120  and  _121
REMARK   50  A    between atoms: _124  and  _126
REMARK   51  A    between atoms: _126  and  _127
REMARK   52  A    between atoms: _126  and  _129
REMARK   53  A    between atoms: _129  and  _130
REMARK   54  A    between atoms: _131  and  _133
REMARK   55  A    between atoms: _133  and  _134
REMARK   56  A    between atoms: _136  and  _138
REMARK   57  A    between atoms: _138  and  _139
REMARK   58  A    between atoms: _138  and  _141
REMARK   59  A    between atoms: _144  and  _146
REMARK   60  A    between atoms: _146  and  _147
REMARK   61  A    between atoms: _150  and  _152
REMARK   62  A    between atoms: _152  and  _153
REMARK   63  A    between atoms: _152  and  _155
REMARK   64  A    between atoms: _155  and  _156
REMARK   65  A    between atoms: _159  and  _161
REMARK   66  A    between atoms: _161  and  _162
REMARK   67  A    between atoms: _164  and  _166
REMARK   68  A    between atoms: _166  and  _167
REMARK   69  A    between atoms: _171  and  _172
REMARK   70  A    between atoms: _177  and  _179
REMARK   71  A    between atoms: _179  and  _180
REMARK   72  A    between atoms: _179  and  _182
REMARK   73  A    between atoms: _182  and  _183
REMARK   74  A    between atoms: _183  and  _184
REMARK   75  A    between atoms: _184  and  _185
REMARK   76  A    between atoms: _194  and  _196
REMARK   77  A    between atoms: _196  and  _197
REMARK   78  A    between atoms: _196  and  _199
REMARK   79  A    between atoms: _199  and  _200
REMARK   80  A    between atoms: _200  and  _201
REMARK   81  A    between atoms: _201  and  _202
REMARK   82  A    between atoms: _211  and  _213
REMARK   83  A    between atoms: _213  and  _214
REMARK   84  A    between atoms: _213  and  _216
REMARK   85  A    between atoms: _216  and  _217
REMARK   86  A    between atoms: _222  and  _224
REMARK   87  A    between atoms: _224  and  _225
REMARK   88  A    between atoms: _224  and  _227
REMARK   89  A    between atoms: _227  and  _228
REMARK   90  A    between atoms: _228  and  _229
REMARK   91  A    between atoms: _232  and  _234
REMARK   92  A    between atoms: _234  and  _235
REMARK   93  A    between atoms: _234  and  _237
REMARK   94  A    between atoms: _237  and  _238
REMARK   95  A    between atoms: _238  and  _239
REMARK   96  A    between atoms: _239  and  _240
REMARK                            x       y       z     vdW  Elec       q    Type
REMARK                         _______ _______ _______ _____ _____    ______ ____
ROOT
ATOM      1  NE  ARG A   1     -36.386 -15.356 -37.107  0.00  0.00    -0.265 N 
ATOM      2  CZ  ARG A   1     -35.180 -15.743 -37.489  0.00  0.00    +0.342 C 
ATOM      3  NH2 ARG A   1     -34.508 -16.597 -36.754  0.00  0.00    -0.292 N 
ATOM      4 HH21 ARG A   1     -34.924 -16.967 -35.875  0.00  0.00    +0.255 HD
ATOM      5 HH22 ARG A   1     -33.560 -16.904 -37.050  0.00  0.00    +0.255 HD
ATOM      6  NH1 ARG A   1     -34.655 -15.268 -38.596  0.00  0.00    -0.292 N 
ATOM      7 HH11 ARG A   1     -33.707 -15.573 -38.895  0.00  0.00    +0.255 HD
ATOM      8 HH12 ARG A   1     -35.188 -14.587 -39.174  0.00  0.00    +0.255 HD
ATOM      9  HE  ARG A   1     -36.900 -14.700 -37.729  0.00  0.00    +0.259 HD
ENDROOT
BRANCH   1  10
ATOM     10  CD  ARG A   1     -37.042 -15.777 -35.890  0.00  0.00    +0.174 C 
BRANCH  10  11
ATOM     11  CG  ARG A   1     -37.177 -14.627 -34.959  0.00  0.00    +0.045 C 
BRANCH  11  12
ATOM     12  CB  ARG A   1     -38.519 -14.083 -34.970  0.00  0.00    +0.029 C 
BRANCH  12  13
ATOM     13  CA  ARG A   1     -38.646 -12.630 -34.588  0.00  0.00    +0.133 C 
BRANCH  13  14
ATOM     14  N   ARG A   1     -37.920 -12.370 -33.369  0.00  0.00    -0.239 NA
ATOM     15  H   ARG A   1     -37.499 -13.178 -32.867  0.00  0.00    +0.142 HD
ENDBRANCH  13  14
BRANCH  13  16
ATOM     16  C   ARG A   1     -40.106 -12.335 -34.444  0.00  0.00    +0.224 C 
ATOM     17  O   ARG A   1     -40.669 -12.570 -33.417  0.00  0.00    -0.287 OA
ENDBRANCH  13  16
ENDBRANCH  12  13
ENDBRANCH  11  12
ENDBRANCH  10  11
ENDBRANCH   1  10
TORSDOF 6
REMARK  Name = ../refined-set-2016/3uil/3uil_pocket.pdb
REMARK  96 active torsions:
REMARK  status: ('A' for Active; 'I' for Inactive)
REMARK    1  A    between atoms: _1  and  _3
REMARK    2  A    between atoms: _3  and  _4
REMARK    3  A    between atoms: _3  and  _6
REMARK    4  A    between atoms: _6  and  _7
REMARK    5  A    between atoms: _7  and  _36
REMARK    6  A    between atoms: _8  and  _10
REMARK    7  A    between atoms: _10  and  _11
REMARK    8  A    between atoms: _13  and  _15
REMARK    9  A    between atoms: _15  and  _16
REMARK   10  A    between atoms: _15  and  _18
REMARK   11  A    between atoms: _18  and  _19
REMARK   12  A    between atoms: _24  and  _26
REMARK   13  A    between atoms: _26  and  _27
REMARK   14  A    between atoms: _30  and  _32
REMARK   15  A    between atoms: _32  and  _33
REMARK   16  A    between atoms: _32  and  _35
REMARK   17  A    between atoms: _35  and  _36
REMARK   18  A    between atoms: _37  and  _39
REMARK   19  A    between atoms: _39  and  _40
REMARK   20  A    between atoms: _39  and  _42
REMARK   21  A    between atoms: _45  and  _47
REMARK   22  A    between atoms: _47  and  _48
REMARK   23  A    between atoms: _51  and  _53
REMARK   24  A    between atoms: _53  and  _54
REMARK   25  A    between atoms: _53  and  _56
REMARK   26  A    between atoms: _56  and  _57
REMARK   27  A    between atoms: _60  and  _62
REMARK   28  A    between atoms: _62  and  _63
REMARK   29  A    between atoms: _62  and  _65
REMARK   30  A    between atoms: _65  and  _66
REMARK   31  A    between atoms: _70  and  _71
REMARK   32  A    between atoms: _77  and  _78
REMARK   33  A    between atoms: _83  and  _85
REMARK   34  A    between atoms: _85  and  _86
REMARK   35  A    between atoms: _89  and  _91
REMARK   36  A    between atoms: _91  and  _92
REMARK   37  A    between atoms: _91  and  _94
REMARK   38  A    between atoms: _94  and  _95
REMARK   39  A    between atoms: _95  and  _130
REMARK   40  A    between atoms: _96  and  _98
REMARK   41  A    between atoms: _98  and  _99
REMARK   42  A    between atoms: _101  and  _103
REMARK   43  A    between atoms: _103  and  _104
REMARK   44  A    between atoms: _103  and  _106
REMARK   45  A    between atoms: _106  and  _107
REMARK   46  A    between atoms: _107  and  _108
REMARK   47  A    between atoms: _108  and  _109
REMARK   48  A    between atoms: _118  and  _120
REMARK   49  A    between atoms: _120  and  _121
REMARK   50  A    between atoms: _124  and  _126
REMARK   51  A    between atoms: _126  and  _127
REMARK   52  A    between atoms: _126  and  _129
REMARK   53  A    between atoms: _129  and  _130
REMARK   54  A    between atoms: _131  and  _133
REMARK   55  A    between atoms: _133  and  _134
REMARK   56  A    between atoms: _136  and  _138
REMARK   57  A    between atoms: _138  and  _139
REMARK   58  A    between atoms: _138  and  _141
REMARK   59  A    between atoms: _144  and  _146
REMARK   60  A    between atoms: _146  and  _147
REMARK   61  A    between atoms: _150  and  _152
REMARK   62  A    between atoms: _152  and  _153
REMARK   63  A    between atoms: _152  and  _155
REMARK   64  A    between atoms: _155  and  _156
REMARK   65  A    between atoms: _159  and  _161
REMARK   66  A    between atoms: _161  and  _162
REMARK   67  A    between atoms: _164  and  _166
REMARK   68  A    between atoms: _166  and  _167
REMARK   69  A    between atoms: _171  and  _172
REMARK   70  A    between atoms: _177  and  _179
REMARK   71  A    between atoms: _179  and  _180
REMARK   72  A    between atoms: _179  and  _182
REMARK   73  A    between atoms: _182  and  _183
REMARK   74  A    between atoms: _183  and  _184
REMARK   75  A    between atoms: _184  and  _185
REMARK   76  A    between atoms: _194  and  _196
REMARK   77  A    between atoms: _196  and  _197
REMARK   78  A    between atoms: _196  and  _199
REMARK   79  A    between atoms: _199  and  _200
REMARK   80  A    between atoms: _200  and  _201
REMARK   81  A    between atoms: _201  and  _202
REMARK   82  A    between atoms: _211  and  _213
REMARK   83  A    between atoms: _213  and  _214
REMARK   84  A    between atoms: _213  and  _216
REMARK   85  A    between atoms: _216  and  _217
REMARK   86  A    between atoms: _222  and  _224
REMARK   87  A    between atoms: _224  and  _225
REMARK   88  A    between atoms: _224  and  _227
REMARK   89  A    between atoms: _227  and  _228
REMARK   90  A    between atoms: _228  and  _229
REMARK   91  A    between atoms: _232  and  _234
REMARK   92  A    between atoms: _234  and  _235
REMARK   93  A    between atoms: _234  and  _237
REMARK   94  A    between atoms: _237  and  _238
REMARK   95  A    between atoms: _238  and  _239
REMARK   96  A    between atoms: _239  and  _240
REMARK                            x       y       z     vdW  Elec       q    Type
REMARK                         _______ _______ _______ _____ _____    ______ ____
ROOT
ATOM      1  CB  ASN A   1     -43.275 -16.230 -36.085  0.00  0.00    +0.110 C 
ENDROOT
BRANCH   1   2
ATOM      2  CG  ASN A   1     -42.022 -16.663 -36.809  0.00  0.00    +0.221 C 
ATOM      3  OD1 ASN A   1     -40.949 -16.064 -36.631  0.00  0.00    -0.275 OA
ATOM      4  ND2 ASN A   1     -42.134 -17.727 -37.620  0.00  0.00    -0.329 N 
ATOM      5 HD21 ASN A   1     -43.054 -18.197 -37.738  0.00  0.00    +0.145 HD
ATOM      6 HD22 ASN A   1     -41.300 -18.082 -38.131  0.00  0.00    +0.145 HD
ENDBRANCH   1   2
BRANCH   1   7
ATOM      7  CA  ASN A   1     -42.960 -15.305 -34.908  0.00  0.00    +0.142 C 
BRANCH   7   8
ATOM      8  N   ASN A   1     -42.419 -14.039 -35.424  0.00  0.00    -0.239 NA
ATOM      9  H   ASN A   1     -41.633 -14.063 -36.104  0.00  0.00    +0.142 HD
ENDBRANCH   7   8
BRANCH   7  10
ATOM     10  C   ASN A   1     -42.013 -16.055 -33.955  0.00  0.00    +0.225 C 
ATOM     11  O   ASN A   1     -41.736 -17.225 -34.165  0.00  0.00    -0.287 OA
ENDBRANCH   7  10
ENDBRANCH   1   7
TORSDOF 4
REMARK  Name = ../refined-set-2016/3uil/3uil_pocket.pdb
REMARK  96 active torsions:
REMARK  status: ('A' for Active; 'I' for Inactive)
REMARK    1  A    between atoms: _1  and  _3
REMARK    2  A    between atoms: _3  and  _4
REMARK    3  A    between atoms: _3  and  _6
REMARK    4  A    between atoms: _6  and  _7
REMARK    5  A    between atoms: _7  and  _36
REMARK    6  A    between atoms: _8  and  _10
REMARK    7  A    between atoms: _10  and  _11
REMARK    8  A    between atoms: _13  and  _15
REMARK    9  A    between atoms: _15  and  _16
REMARK   10  A    between atoms: _15  and  _18
REMARK   11  A    between atoms: _18  and  _19
REMARK   12  A    between atoms: _24  and  _26
REMARK   13  A    between atoms: _26  and  _27
REMARK   14  A    between atoms: _30  and  _32
REMARK   15  A    between atoms: _32  and  _33
REMARK   16  A    between atoms: _32  and  _35
REMARK   17  A    between atoms: _35  and  _36
REMARK   18  A    between atoms: _37  and  _39
REMARK   19  A    between atoms: _39  and  _40
REMARK   20  A    between atoms: _39  and  _42
REMARK   21  A    between atoms: _45  and  _47
REMARK   22  A    between atoms: _47  and  _48
REMARK   23  A    between atoms: _51  and  _53
REMARK   24  A    between atoms: _53  and  _54
REMARK   25  A    between atoms: _53  and  _56
REMARK   26  A    between atoms: _56  and  _57
REMARK   27  A    between atoms: _60  and  _62
REMARK   28  A    between atoms: _62  and  _63
REMARK   29  A    between atoms: _62  and  _65
REMARK   30  A    between atoms: _65  and  _66
REMARK   31  A    between atoms: _70  and  _71
REMARK   32  A    between atoms: _77  and  _78
REMARK   33  A    between atoms: _83  and  _85
REMARK   34  A    between atoms: _85  and  _86
REMARK   35  A    between atoms: _89  and  _91
REMARK   36  A    between atoms: _91  and  _92
REMARK   37  A    between atoms: _91  and  _94
REMARK   38  A    between atoms: _94  and  _95
REMARK   39  A    between atoms: _95  and  _130
REMARK   40  A    between atoms: _96  and  _98
REMARK   41  A    between atoms: _98  and  _99
REMARK   42  A    between atoms: _101  and  _103
REMARK   43  A    between atoms: _103  and  _104
REMARK   44  A    between atoms: _103  and  _106
REMARK   45  A    between atoms: _106  and  _107
REMARK   46  A    between atoms: _107  and  _108
REMARK   47  A    between atoms: _108  and  _109
REMARK   48  A    between atoms: _118  and  _120
REMARK   49  A    between atoms: _120  and  _121
REMARK   50  A    between atoms: _124  and  _126
REMARK   51  A    between atoms: _126  and  _127
REMARK   52  A    between atoms: _126  and  _129
REMARK   53  A    between atoms: _129  and  _130
REMARK   54  A    between atoms: _131  and  _133
REMARK   55  A    between atoms: _133  and  _134
REMARK   56  A    between atoms: _136  and  _138
REMARK   57  A    between atoms: _138  and  _139
REMARK   58  A    between atoms: _138  and  _141
REMARK   59  A    between atoms: _144  and  _146
REMARK   60  A    between atoms: _146  and  _147
REMARK   61  A    between atoms: _150  and  _152
REMARK   62  A    between atoms: _152  and  _153
REMARK   63  A    between atoms: _152  and  _155
REMARK   64  A    between atoms: _155  and  _156
REMARK   65  A    between atoms: _159  and  _161
REMARK   66  A    between atoms: _161  and  _162
REMARK   67  A    between atoms: _164  and  _166
REMARK   68  A    between atoms: _166  and  _167
REMARK   69  A    between atoms: _171  and  _172
REMARK   70  A    between atoms: _177  and  _179
REMARK   71  A    between atoms: _179  and  _180
REMARK   72  A    between atoms: _179  and  _182
REMARK   73  A    between atoms: _182  and  _183
REMARK   74  A    between atoms: _183  and  _184
REMARK   75  A    between atoms: _184  and  _185
REMARK   76  A    between atoms: _194  and  _196
REMARK   77  A    between atoms: _196  and  _197
REMARK   78  A    between atoms: _196  and  _199
REMARK   79  A    between atoms: _199  and  _200
REMARK   80  A    between atoms: _200  and  _201
REMARK   81  A    between atoms: _201  and  _202
REMARK   82  A    between atoms: _211  and  _213
REMARK   83  A    between atoms: _213  and  _214
REMARK   84  A    between atoms: _213  and  _216
REMARK   85  A    between atoms: _216  and  _217
REMARK   86  A    between atoms: _222  and  _224
REMARK   87  A    between atoms: _224  and  _225
REMARK   88  A    between atoms: _224  and  _227
REMARK   89  A    between atoms: _227  and  _228
REMARK   90  A    between atoms: _228  and  _229
REMARK   91  A    between atoms: _232  and  _234
REMARK   92  A    between atoms: _234  and  _235
REMARK   93  A    between atoms: _234  and  _237
REMARK   94  A    between atoms: _237  and  _238
REMARK   95  A    between atoms: _238  and  _239
REMARK   96  A    between atoms: _239  and  _240
REMARK                            x       y       z     vdW  Elec       q    Type
REMARK                         _______ _______ _______ _____ _____    ______ ____
ROOT
ATOM      1  CA  GLU A   1     -41.634 -18.887 -29.629  0.00  0.00    +0.134 C 
ENDROOT
BRANCH   1   2
ATOM      2  N   GLU A   1     -40.880 -17.879 -30.395  0.00  0.00    -0.239 NA
ATOM      3  H   GLU A   1     -39.840 -17.892 -30.409  0.00  0.00    +0.142 HD
ENDBRANCH   1   2
BRANCH   1   4
ATOM      4  C   GLU A   1     -41.331 -18.817 -28.141  0.00  0.00    +0.224 C 
ATOM      5  O   GLU A   1     -40.184 -18.603 -27.749  0.00  0.00    -0.287 OA
ENDBRANCH   1   4
BRANCH   1   6
ATOM      6  CB  GLU A   1     -41.317 -20.288 -30.153  0.00  0.00    +0.037 C 
BRANCH   6   7
ATOM      7  CG  GLU A   1     -41.662 -20.463 -31.628  0.00  0.00    +0.116 C 
BRANCH   7   8
ATOM      8  CD  GLU A   1     -41.126 -21.806 -32.188  0.00  0.00    +0.365 C 
ATOM      9  OE2 GLU A   1     -41.034 -22.848 -31.436  0.00  0.00    -0.246 OA
ATOM     10  OE1 GLU A   1     -40.748 -21.768 -33.389  0.00  0.00    -0.246 OA
ENDBRANCH   7   8
ENDBRANCH   6   7
ENDBRANCH   1   6
TORSDOF 5
REMARK  Name = ../refined-set-2016/3uil/3uil_pocket.pdb
REMARK  96 active torsions:
REMARK  status: ('A' for Active; 'I' for Inactive)
REMARK    1  A    between atoms: _1  and  _3
REMARK    2  A    between atoms: _3  and  _4
REMARK    3  A    between atoms: _3  and  _6
REMARK    4  A    between atoms: _6  and  _7
REMARK    5  A    between atoms: _7  and  _36
REMARK    6  A    between atoms: _8  and  _10
REMARK    7  A    between atoms: _10  and  _11
REMARK    8  A    between atoms: _13  and  _15
REMARK    9  A    between atoms: _15  and  _16
REMARK   10  A    between atoms: _15  and  _18
REMARK   11  A    between atoms: _18  and  _19
REMARK   12  A    between atoms: _24  and  _26
REMARK   13  A    between atoms: _26  and  _27
REMARK   14  A    between atoms: _30  and  _32
REMARK   15  A    between atoms: _32  and  _33
REMARK   16  A    between atoms: _32  and  _35
REMARK   17  A    between atoms: _35  and  _36
REMARK   18  A    between atoms: _37  and  _39
REMARK   19  A    between atoms: _39  and  _40
REMARK   20  A    between atoms: _39  and  _42
REMARK   21  A    between atoms: _45  and  _47
REMARK   22  A    between atoms: _47  and  _48
REMARK   23  A    between atoms: _51  and  _53
REMARK   24  A    between atoms: _53  and  _54
REMARK   25  A    between atoms: _53  and  _56
REMARK   26  A    between atoms: _56  and  _57
REMARK   27  A    between atoms: _60  and  _62
REMARK   28  A    between atoms: _62  and  _63
REMARK   29  A    between atoms: _62  and  _65
REMARK   30  A    between atoms: _65  and  _66
REMARK   31  A    between atoms: _70  and  _71
REMARK   32  A    between atoms: _77  and  _78
REMARK   33  A    between atoms: _83  and  _85
REMARK   34  A    between atoms: _85  and  _86
REMARK   35  A    between atoms: _89  and  _91
REMARK   36  A    between atoms: _91  and  _92
REMARK   37  A    between atoms: _91  and  _94
REMARK   38  A    between atoms: _94  and  _95
REMARK   39  A    between atoms: _95  and  _130
REMARK   40  A    between atoms: _96  and  _98
REMARK   41  A    between atoms: _98  and  _99
REMARK   42  A    between atoms: _101  and  _103
REMARK   43  A    between atoms: _103  and  _104
REMARK   44  A    between atoms: _103  and  _106
REMARK   45  A    between atoms: _106  and  _107
REMARK   46  A    between atoms: _107  and  _108
REMARK   47  A    between atoms: _108  and  _109
REMARK   48  A    between atoms: _118  and  _120
REMARK   49  A    between atoms: _120  and  _121
REMARK   50  A    between atoms: _124  and  _126
REMARK   51  A    between atoms: _126  and  _127
REMARK   52  A    between atoms: _126  and  _129
REMARK   53  A    between atoms: _129  and  _130
REMARK   54  A    between atoms: _131  and  _133
REMARK   55  A    between atoms: _133  and  _134
REMARK   56  A    between atoms: _136  and  _138
REMARK   57  A    between atoms: _138  and  _139
REMARK   58  A    between atoms: _138  and  _141
REMARK   59  A    between atoms: _144  and  _146
REMARK   60  A    between atoms: _146  and  _147
REMARK   61  A    between atoms: _150  and  _152
REMARK   62  A    between atoms: _152  and  _153
REMARK   63  A    between atoms: _152  and  _155
REMARK   64  A    between atoms: _155  and  _156
REMARK   65  A    between atoms: _159  and  _161
REMARK   66  A    between atoms: _161  and  _162
REMARK   67  A    between atoms: _164  and  _166
REMARK   68  A    between atoms: _166  and  _167
REMARK   69  A    between atoms: _171  and  _172
REMARK   70  A    between atoms: _177  and  _179
REMARK   71  A    between atoms: _179  and  _180
REMARK   72  A    between atoms: _179  and  _182
REMARK   73  A    between atoms: _182  and  _183
REMARK   74  A    between atoms: _183  and  _184
REMARK   75  A    between atoms: _184  and  _185
REMARK   76  A    between atoms: _194  and  _196
REMARK   77  A    between atoms: _196  and  _197
REMARK   78  A    between atoms: _196  and  _199
REMARK   79  A    between atoms: _199  and  _200
REMARK   80  A    between atoms: _200  and  _201
REMARK   81  A    between atoms: _201  and  _202
REMARK   82  A    between atoms: _211  and  _213
REMARK   83  A    between atoms: _213  and  _214
REMARK   84  A    between atoms: _213  and  _216
REMARK   85  A    between atoms: _216  and  _217
REMARK   86  A    between atoms: _222  and  _224
REMARK   87  A    between atoms: _224  and  _225
REMARK   88  A    between atoms: _224  and  _227
REMARK   89  A    between atoms: _227  and  _228
REMARK   90  A    between atoms: _228  and  _229
REMARK   91  A    between atoms: _232  and  _234
REMARK   92  A    between atoms: _234  and  _235
REMARK   93  A    between atoms: _234  and  _237
REMARK   94  A    between atoms: _237  and  _238
REMARK   95  A    between atoms: _238  and  _239
REMARK   96  A    between atoms: _239  and  _240
REMARK                            x       y       z     vdW  Elec       q    Type
REMARK                         _______ _______ _______ _____ _____    ______ ____
ROOT
ATOM      1  NE  ARG A   1     -44.583 -24.517 -33.119  0.00  0.00    -0.265 N 
ATOM      2  HE  ARG A   1     -45.458 -25.045 -32.924  0.00  0.00    +0.259 HD
ATOM      3  CZ  ARG A   1     -43.939 -24.813 -34.245  0.00  0.00    +0.342 C 
ATOM      4  NH2 ARG A   1     -42.835 -24.167 -34.574  0.00  0.00    -0.292 N 
ATOM      5 HH21 ARG A   1     -42.464 -23.421 -33.951  0.00  0.00    +0.255 HD
ATOM      6 HH22 ARG A   1     -42.337 -24.404 -35.456  0.00  0.00    +0.255 HD
ATOM      7  NH1 ARG A   1     -44.438 -25.768 -35.055  0.00  0.00    -0.292 N 
ATOM      8 HH11 ARG A   1     -45.316 -26.263 -34.797  0.00  0.00    +0.255 HD
ATOM      9 HH12 ARG A   1     -43.945 -26.010 -35.938  0.00  0.00    +0.255 HD
ENDROOT
BRANCH   1  10
ATOM     10  CD  ARG A   1     -44.183 -23.533 -32.143  0.00  0.00    +0.174 C 
BRANCH  10  11
ATOM     11  CG  ARG A   1     -43.974 -24.190 -30.777  0.00  0.00    +0.045 C 
BRANCH  11  12
ATOM     12  CB  ARG A   1     -44.138 -23.104 -29.740  0.00  0.00    +0.029 C 
BRANCH  12  13
ATOM     13  CA  ARG A   1     -44.833 -23.480 -28.466  0.00  0.00    +0.133 C 
BRANCH  13  14
ATOM     14  N   ARG A   1     -45.012 -22.267 -27.641  0.00  0.00    -0.239 NA
ATOM     15  H   ARG A   1     -44.230 -21.974 -27.022  0.00  0.00    +0.142 HD
ENDBRANCH  13  14
BRANCH  13  16
ATOM     16  C   ARG A   1     -43.990 -24.475 -27.682  0.00  0.00    +0.224 C 
ATOM     17  O   ARG A   1     -42.840 -24.210 -27.412  0.00  0.00    -0.287 OA
ENDBRANCH  13  16
ENDBRANCH  12  13
ENDBRANCH  11  12
ENDBRANCH  10  11
ENDBRANCH   1  10
TORSDOF 6
REMARK  Name = ../refined-set-2016/3uil/3uil_pocket.pdb
REMARK  96 active torsions:
REMARK  status: ('A' for Active; 'I' for Inactive)
REMARK    1  A    between atoms: _1  and  _3
REMARK    2  A    between atoms: _3  and  _4
REMARK    3  A    between atoms: _3  and  _6
REMARK    4  A    between atoms: _6  and  _7
REMARK    5  A    between atoms: _7  and  _36
REMARK    6  A    between atoms: _8  and  _10
REMARK    7  A    between atoms: _10  and  _11
REMARK    8  A    between atoms: _13  and  _15
REMARK    9  A    between atoms: _15  and  _16
REMARK   10  A    between atoms: _15  and  _18
REMARK   11  A    between atoms: _18  and  _19
REMARK   12  A    between atoms: _24  and  _26
REMARK   13  A    between atoms: _26  and  _27
REMARK   14  A    between atoms: _30  and  _32
REMARK   15  A    between atoms: _32  and  _33
REMARK   16  A    between atoms: _32  and  _35
REMARK   17  A    between atoms: _35  and  _36
REMARK   18  A    between atoms: _37  and  _39
REMARK   19  A    between atoms: _39  and  _40
REMARK   20  A    between atoms: _39  and  _42
REMARK   21  A    between atoms: _45  and  _47
REMARK   22  A    between atoms: _47  and  _48
REMARK   23  A    between atoms: _51  and  _53
REMARK   24  A    between atoms: _53  and  _54
REMARK   25  A    between atoms: _53  and  _56
REMARK   26  A    between atoms: _56  and  _57
REMARK   27  A    between atoms: _60  and  _62
REMARK   28  A    between atoms: _62  and  _63
REMARK   29  A    between atoms: _62  and  _65
REMARK   30  A    between atoms: _65  and  _66
REMARK   31  A    between atoms: _70  and  _71
REMARK   32  A    between atoms: _77  and  _78
REMARK   33  A    between atoms: _83  and  _85
REMARK   34  A    between atoms: _85  and  _86
REMARK   35  A    between atoms: _89  and  _91
REMARK   36  A    between atoms: _91  and  _92
REMARK   37  A    between atoms: _91  and  _94
REMARK   38  A    between atoms: _94  and  _95
REMARK   39  A    between atoms: _95  and  _130
REMARK   40  A    between atoms: _96  and  _98
REMARK   41  A    between atoms: _98  and  _99
REMARK   42  A    between atoms: _101  and  _103
REMARK   43  A    between atoms: _103  and  _104
REMARK   44  A    between atoms: _103  and  _106
REMARK   45  A    between atoms: _106  and  _107
REMARK   46  A    between atoms: _107  and  _108
REMARK   47  A    between atoms: _108  and  _109
REMARK   48  A    between atoms: _118  and  _120
REMARK   49  A    between atoms: _120  and  _121
REMARK   50  A    between atoms: _124  and  _126
REMARK   51  A    between atoms: _126  and  _127
REMARK   52  A    between atoms: _126  and  _129
REMARK   53  A    between atoms: _129  and  _130
REMARK   54  A    between atoms: _131  and  _133
REMARK   55  A    between atoms: _133  and  _134
REMARK   56  A    between atoms: _136  and  _138
REMARK   57  A    between atoms: _138  and  _139
REMARK   58  A    between atoms: _138  and  _141
REMARK   59  A    between atoms: _144  and  _146
REMARK   60  A    between atoms: _146  and  _147
REMARK   61  A    between atoms: _150  and  _152
REMARK   62  A    between atoms: _152  and  _153
REMARK   63  A    between atoms: _152  and  _155
REMARK   64  A    between atoms: _155  and  _156
REMARK   65  A    between atoms: _159  and  _161
REMARK   66  A    between atoms: _161  and  _162
REMARK   67  A    between atoms: _164  and  _166
REMARK   68  A    between atoms: _166  and  _167
REMARK   69  A    between atoms: _171  and  _172
REMARK   70  A    between atoms: _177  and  _179
REMARK   71  A    between atoms: _179  and  _180
REMARK   72  A    between atoms: _179  and  _182
REMARK   73  A    between atoms: _182  and  _183
REMARK   74  A    between atoms: _183  and  _184
REMARK   75  A    between atoms: _184  and  _185
REMARK   76  A    between atoms: _194  and  _196
REMARK   77  A    between atoms: _196  and  _197
REMARK   78  A    between atoms: _196  and  _199
REMARK   79  A    between atoms: _199  and  _200
REMARK   80  A    between atoms: _200  and  _201
REMARK   81  A    between atoms: _201  and  _202
REMARK   82  A    between atoms: _211  and  _213
REMARK   83  A    between atoms: _213  and  _214
REMARK   84  A    between atoms: _213  and  _216
REMARK   85  A    between atoms: _216  and  _217
REMARK   86  A    between atoms: _222  and  _224
REMARK   87  A    between atoms: _224  and  _225
REMARK   88  A    between atoms: _224  and  _227
REMARK   89  A    between atoms: _227  and  _228
REMARK   90  A    between atoms: _228  and  _229
REMARK   91  A    between atoms: _232  and  _234
REMARK   92  A    between atoms: _234  and  _235
REMARK   93  A    between atoms: _234  and  _237
REMARK   94  A    between atoms: _237  and  _238
REMARK   95  A    between atoms: _238  and  _239
REMARK   96  A    between atoms: _239  and  _240
REMARK                            x       y       z     vdW  Elec       q    Type
REMARK                         _______ _______ _______ _____ _____    ______ ____
ROOT
ATOM      1  O   HOH     1     -30.528 -24.605 -35.989  0.00  0.00    +0.000 OA
ENDROOT
TORSDOF 0
REMARK  Name = ../refined-set-2016/3uil/3uil_pocket.pdb
REMARK  96 active torsions:
REMARK  status: ('A' for Active; 'I' for Inactive)
REMARK    1  A    between atoms: _1  and  _3
REMARK    2  A    between atoms: _3  and  _4
REMARK    3  A    between atoms: _3  and  _6
REMARK    4  A    between atoms: _6  and  _7
REMARK    5  A    between atoms: _7  and  _36
REMARK    6  A    between atoms: _8  and  _10
REMARK    7  A    between atoms: _10  and  _11
REMARK    8  A    between atoms: _13  and  _15
REMARK    9  A    between atoms: _15  and  _16
REMARK   10  A    between atoms: _15  and  _18
REMARK   11  A    between atoms: _18  and  _19
REMARK   12  A    between atoms: _24  and  _26
REMARK   13  A    between atoms: _26  and  _27
REMARK   14  A    between atoms: _30  and  _32
REMARK   15  A    between atoms: _32  and  _33
REMARK   16  A    between atoms: _32  and  _35
REMARK   17  A    between atoms: _35  and  _36
REMARK   18  A    between atoms: _37  and  _39
REMARK   19  A    between atoms: _39  and  _40
REMARK   20  A    between atoms: _39  and  _42
REMARK   21  A    between atoms: _45  and  _47
REMARK   22  A    between atoms: _47  and  _48
REMARK   23  A    between atoms: _51  and  _53
REMARK   24  A    between atoms: _53  and  _54
REMARK   25  A    between atoms: _53  and  _56
REMARK   26  A    between atoms: _56  and  _57
REMARK   27  A    between atoms: _60  and  _62
REMARK   28  A    between atoms: _62  and  _63
REMARK   29  A    between atoms: _62  and  _65
REMARK   30  A    between atoms: _65  and  _66
REMARK   31  A    between atoms: _70  and  _71
REMARK   32  A    between atoms: _77  and  _78
REMARK   33  A    between atoms: _83  and  _85
REMARK   34  A    between atoms: _85  and  _86
REMARK   35  A    between atoms: _89  and  _91
REMARK   36  A    between atoms: _91  and  _92
REMARK   37  A    between atoms: _91  and  _94
REMARK   38  A    between atoms: _94  and  _95
REMARK   39  A    between atoms: _95  and  _130
REMARK   40  A    between atoms: _96  and  _98
REMARK   41  A    between atoms: _98  and  _99
REMARK   42  A    between atoms: _101  and  _103
REMARK   43  A    between atoms: _103  and  _104
REMARK   44  A    between atoms: _103  and  _106
REMARK   45  A    between atoms: _106  and  _107
REMARK   46  A    between atoms: _107  and  _108
REMARK   47  A    between atoms: _108  and  _109
REMARK   48  A    between atoms: _118  and  _120
REMARK   49  A    between atoms: _120  and  _121
REMARK   50  A    between atoms: _124  and  _126
REMARK   51  A    between atoms: _126  and  _127
REMARK   52  A    between atoms: _126  and  _129
REMARK   53  A    between atoms: _129  and  _130
REMARK   54  A    between atoms: _131  and  _133
REMARK   55  A    between atoms: _133  and  _134
REMARK   56  A    between atoms: _136  and  _138
REMARK   57  A    between atoms: _138  and  _139
REMARK   58  A    between atoms: _138  and  _141
REMARK   59  A    between atoms: _144  and  _146
REMARK   60  A    between atoms: _146  and  _147
REMARK   61  A    between atoms: _150  and  _152
REMARK   62  A    between atoms: _152  and  _153
REMARK   63  A    between atoms: _152  and  _155
REMARK   64  A    between atoms: _155  and  _156
REMARK   65  A    between atoms: _159  and  _161
REMARK   66  A    between atoms: _161  and  _162
REMARK   67  A    between atoms: _164  and  _166
REMARK   68  A    between atoms: _166  and  _167
REMARK   69  A    between atoms: _171  and  _172
REMARK   70  A    between atoms: _177  and  _179
REMARK   71  A    between atoms: _179  and  _180
REMARK   72  A    between atoms: _179  and  _182
REMARK   73  A    between atoms: _182  and  _183
REMARK   74  A    between atoms: _183  and  _184
REMARK   75  A    between atoms: _184  and  _185
REMARK   76  A    between atoms: _194  and  _196
REMARK   77  A    between atoms: _196  and  _197
REMARK   78  A    between atoms: _196  and  _199
REMARK   79  A    between atoms: _199  and  _200
REMARK   80  A    between atoms: _200  and  _201
REMARK   81  A    between atoms: _201  and  _202
REMARK   82  A    between atoms: _211  and  _213
REMARK   83  A    between atoms: _213  and  _214
REMARK   84  A    between atoms: _213  and  _216
REMARK   85  A    between atoms: _216  and  _217
REMARK   86  A    between atoms: _222  and  _224
REMARK   87  A    between atoms: _224  and  _225
REMARK   88  A    between atoms: _224  and  _227
REMARK   89  A    between atoms: _227  and  _228
REMARK   90  A    between atoms: _228  and  _229
REMARK   91  A    between atoms: _232  and  _234
REMARK   92  A    between atoms: _234  and  _235
REMARK   93  A    between atoms: _234  and  _237
REMARK   94  A    between atoms: _237  and  _238
REMARK   95  A    between atoms: _238  and  _239
REMARK   96  A    between atoms: _239  and  _240
REMARK                            x       y       z     vdW  Elec       q    Type
REMARK                         _______ _______ _______ _____ _____    ______ ____
ROOT
ATOM      1  O   HOH     1     -28.255 -23.170 -44.818  0.00  0.00    +0.000 OA
ENDROOT
TORSDOF 0
REMARK  Name = ../refined-set-2016/3uil/3uil_pocket.pdb
REMARK  96 active torsions:
REMARK  status: ('A' for Active; 'I' for Inactive)
REMARK    1  A    between atoms: _1  and  _3
REMARK    2  A    between atoms: _3  and  _4
REMARK    3  A    between atoms: _3  and  _6
REMARK    4  A    between atoms: _6  and  _7
REMARK    5  A    between atoms: _7  and  _36
REMARK    6  A    between atoms: _8  and  _10
REMARK    7  A    between atoms: _10  and  _11
REMARK    8  A    between atoms: _13  and  _15
REMARK    9  A    between atoms: _15  and  _16
REMARK   10  A    between atoms: _15  and  _18
REMARK   11  A    between atoms: _18  and  _19
REMARK   12  A    between atoms: _24  and  _26
REMARK   13  A    between atoms: _26  and  _27
REMARK   14  A    between atoms: _30  and  _32
REMARK   15  A    between atoms: _32  and  _33
REMARK   16  A    between atoms: _32  and  _35
REMARK   17  A    between atoms: _35  and  _36
REMARK   18  A    between atoms: _37  and  _39
REMARK   19  A    between atoms: _39  and  _40
REMARK   20  A    between atoms: _39  and  _42
REMARK   21  A    between atoms: _45  and  _47
REMARK   22  A    between atoms: _47  and  _48
REMARK   23  A    between atoms: _51  and  _53
REMARK   24  A    between atoms: _53  and  _54
REMARK   25  A    between atoms: _53  and  _56
REMARK   26  A    between atoms: _56  and  _57
REMARK   27  A    between atoms: _60  and  _62
REMARK   28  A    between atoms: _62  and  _63
REMARK   29  A    between atoms: _62  and  _65
REMARK   30  A    between atoms: _65  and  _66
REMARK   31  A    between atoms: _70  and  _71
REMARK   32  A    between atoms: _77  and  _78
REMARK   33  A    between atoms: _83  and  _85
REMARK   34  A    between atoms: _85  and  _86
REMARK   35  A    between atoms: _89  and  _91
REMARK   36  A    between atoms: _91  and  _92
REMARK   37  A    between atoms: _91  and  _94
REMARK   38  A    between atoms: _94  and  _95
REMARK   39  A    between atoms: _95  and  _130
REMARK   40  A    between atoms: _96  and  _98
REMARK   41  A    between atoms: _98  and  _99
REMARK   42  A    between atoms: _101  and  _103
REMARK   43  A    between atoms: _103  and  _104
REMARK   44  A    between atoms: _103  and  _106
REMARK   45  A    between atoms: _106  and  _107
REMARK   46  A    between atoms: _107  and  _108
REMARK   47  A    between atoms: _108  and  _109
REMARK   48  A    between atoms: _118  and  _120
REMARK   49  A    between atoms: _120  and  _121
REMARK   50  A    between atoms: _124  and  _126
REMARK   51  A    between atoms: _126  and  _127
REMARK   52  A    between atoms: _126  and  _129
REMARK   53  A    between atoms: _129  and  _130
REMARK   54  A    between atoms: _131  and  _133
REMARK   55  A    between atoms: _133  and  _134
REMARK   56  A    between atoms: _136  and  _138
REMARK   57  A    between atoms: _138  and  _139
REMARK   58  A    between atoms: _138  and  _141
REMARK   59  A    between atoms: _144  and  _146
REMARK   60  A    between atoms: _146  and  _147
REMARK   61  A    between atoms: _150  and  _152
REMARK   62  A    between atoms: _152  and  _153
REMARK   63  A    between atoms: _152  and  _155
REMARK   64  A    between atoms: _155  and  _156
REMARK   65  A    between atoms: _159  and  _161
REMARK   66  A    between atoms: _161  and  _162
REMARK   67  A    between atoms: _164  and  _166
REMARK   68  A    between atoms: _166  and  _167
REMARK   69  A    between atoms: _171  and  _172
REMARK   70  A    between atoms: _177  and  _179
REMARK   71  A    between atoms: _179  and  _180
REMARK   72  A    between atoms: _179  and  _182
REMARK   73  A    between atoms: _182  and  _183
REMARK   74  A    between atoms: _183  and  _184
REMARK   75  A    between atoms: _184  and  _185
REMARK   76  A    between atoms: _194  and  _196
REMARK   77  A    between atoms: _196  and  _197
REMARK   78  A    between atoms: _196  and  _199
REMARK   79  A    between atoms: _199  and  _200
REMARK   80  A    between atoms: _200  and  _201
REMARK   81  A    between atoms: _201  and  _202
REMARK   82  A    between atoms: _211  and  _213
REMARK   83  A    between atoms: _213  and  _214
REMARK   84  A    between atoms: _213  and  _216
REMARK   85  A    between atoms: _216  and  _217
REMARK   86  A    between atoms: _222  and  _224
REMARK   87  A    between atoms: _224  and  _225
REMARK   88  A    between atoms: _224  and  _227
REMARK   89  A    between atoms: _227  and  _228
REMARK   90  A    between atoms: _228  and  _229
REMARK   91  A    between atoms: _232  and  _234
REMARK   92  A    between atoms: _234  and  _235
REMARK   93  A    between atoms: _234  and  _237
REMARK   94  A    between atoms: _237  and  _238
REMARK   95  A    between atoms: _238  and  _239
REMARK   96  A    between atoms: _239  and  _240
REMARK                            x       y       z     vdW  Elec       q    Type
REMARK                         _______ _______ _______ _____ _____    ______ ____
ROOT
ATOM      1  O   HOH     1     -32.304 -26.963 -35.224  0.00  0.00    +0.000 OA
ENDROOT
TORSDOF 0
REMARK  Name = ../refined-set-2016/3uil/3uil_pocket.pdb
REMARK  96 active torsions:
REMARK  status: ('A' for Active; 'I' for Inactive)
REMARK    1  A    between atoms: _1  and  _3
REMARK    2  A    between atoms: _3  and  _4
REMARK    3  A    between atoms: _3  and  _6
REMARK    4  A    between atoms: _6  and  _7
REMARK    5  A    between atoms: _7  and  _36
REMARK    6  A    between atoms: _8  and  _10
REMARK    7  A    between atoms: _10  and  _11
REMARK    8  A    between atoms: _13  and  _15
REMARK    9  A    between atoms: _15  and  _16
REMARK   10  A    between atoms: _15  and  _18
REMARK   11  A    between atoms: _18  and  _19
REMARK   12  A    between atoms: _24  and  _26
REMARK   13  A    between atoms: _26  and  _27
REMARK   14  A    between atoms: _30  and  _32
REMARK   15  A    between atoms: _32  and  _33
REMARK   16  A    between atoms: _32  and  _35
REMARK   17  A    between atoms: _35  and  _36
REMARK   18  A    between atoms: _37  and  _39
REMARK   19  A    between atoms: _39  and  _40
REMARK   20  A    between atoms: _39  and  _42
REMARK   21  A    between atoms: _45  and  _47
REMARK   22  A    between atoms: _47  and  _48
REMARK   23  A    between atoms: _51  and  _53
REMARK   24  A    between atoms: _53  and  _54
REMARK   25  A    between atoms: _53  and  _56
REMARK   26  A    between atoms: _56  and  _57
REMARK   27  A    between atoms: _60  and  _62
REMARK   28  A    between atoms: _62  and  _63
REMARK   29  A    between atoms: _62  and  _65
REMARK   30  A    between atoms: _65  and  _66
REMARK   31  A    between atoms: _70  and  _71
REMARK   32  A    between atoms: _77  and  _78
REMARK   33  A    between atoms: _83  and  _85
REMARK   34  A    between atoms: _85  and  _86
REMARK   35  A    between atoms: _89  and  _91
REMARK   36  A    between atoms: _91  and  _92
REMARK   37  A    between atoms: _91  and  _94
REMARK   38  A    between atoms: _94  and  _95
REMARK   39  A    between atoms: _95  and  _130
REMARK   40  A    between atoms: _96  and  _98
REMARK   41  A    between atoms: _98  and  _99
REMARK   42  A    between atoms: _101  and  _103
REMARK   43  A    between atoms: _103  and  _104
REMARK   44  A    between atoms: _103  and  _106
REMARK   45  A    between atoms: _106  and  _107
REMARK   46  A    between atoms: _107  and  _108
REMARK   47  A    between atoms: _108  and  _109
REMARK   48  A    between atoms: _118  and  _120
REMARK   49  A    between atoms: _120  and  _121
REMARK   50  A    between atoms: _124  and  _126
REMARK   51  A    between atoms: _126  and  _127
REMARK   52  A    between atoms: _126  and  _129
REMARK   53  A    between atoms: _129  and  _130
REMARK   54  A    between atoms: _131  and  _133
REMARK   55  A    between atoms: _133  and  _134
REMARK   56  A    between atoms: _136  and  _138
REMARK   57  A    between atoms: _138  and  _139
REMARK   58  A    between atoms: _138  and  _141
REMARK   59  A    between atoms: _144  and  _146
REMARK   60  A    between atoms: _146  and  _147
REMARK   61  A    between atoms: _150  and  _152
REMARK   62  A    between atoms: _152  and  _153
REMARK   63  A    between atoms: _152  and  _155
REMARK   64  A    between atoms: _155  and  _156
REMARK   65  A    between atoms: _159  and  _161
REMARK   66  A    between atoms: _161  and  _162
REMARK   67  A    between atoms: _164  and  _166
REMARK   68  A    between atoms: _166  and  _167
REMARK   69  A    between atoms: _171  and  _172
REMARK   70  A    between atoms: _177  and  _179
REMARK   71  A    between atoms: _179  and  _180
REMARK   72  A    between atoms: _179  and  _182
REMARK   73  A    between atoms: _182  and  _183
REMARK   74  A    between atoms: _183  and  _184
REMARK   75  A    between atoms: _184  and  _185
REMARK   76  A    between atoms: _194  and  _196
REMARK   77  A    between atoms: _196  and  _197
REMARK   78  A    between atoms: _196  and  _199
REMARK   79  A    between atoms: _199  and  _200
REMARK   80  A    between atoms: _200  and  _201
REMARK   81  A    between atoms: _201  and  _202
REMARK   82  A    between atoms: _211  and  _213
REMARK   83  A    between atoms: _213  and  _214
REMARK   84  A    between atoms: _213  and  _216
REMARK   85  A    between atoms: _216  and  _217
REMARK   86  A    between atoms: _222  and  _224
REMARK   87  A    between atoms: _224  and  _225
REMARK   88  A    between atoms: _224  and  _227
REMARK   89  A    between atoms: _227  and  _228
REMARK   90  A    between atoms: _228  and  _229
REMARK   91  A    between atoms: _232  and  _234
REMARK   92  A    between atoms: _234  and  _235
REMARK   93  A    between atoms: _234  and  _237
REMARK   94  A    between atoms: _237  and  _238
REMARK   95  A    between atoms: _238  and  _239
REMARK   96  A    between atoms: _239  and  _240
REMARK                            x       y       z     vdW  Elec       q    Type
REMARK                         _______ _______ _______ _____ _____    ______ ____
ROOT
ATOM      1  O   HOH     1     -40.627 -31.059 -45.316  0.00  0.00    +0.000 OA
ENDROOT
TORSDOF 0
REMARK  Name = ../refined-set-2016/3uil/3uil_pocket.pdb
REMARK  96 active torsions:
REMARK  status: ('A' for Active; 'I' for Inactive)
REMARK    1  A    between atoms: _1  and  _3
REMARK    2  A    between atoms: _3  and  _4
REMARK    3  A    between atoms: _3  and  _6
REMARK    4  A    between atoms: _6  and  _7
REMARK    5  A    between atoms: _7  and  _36
REMARK    6  A    between atoms: _8  and  _10
REMARK    7  A    between atoms: _10  and  _11
REMARK    8  A    between atoms: _13  and  _15
REMARK    9  A    between atoms: _15  and  _16
REMARK   10  A    between atoms: _15  and  _18
REMARK   11  A    between atoms: _18  and  _19
REMARK   12  A    between atoms: _24  and  _26
REMARK   13  A    between atoms: _26  and  _27
REMARK   14  A    between atoms: _30  and  _32
REMARK   15  A    between atoms: _32  and  _33
REMARK   16  A    between atoms: _32  and  _35
REMARK   17  A    between atoms: _35  and  _36
REMARK   18  A    between atoms: _37  and  _39
REMARK   19  A    between atoms: _39  and  _40
REMARK   20  A    between atoms: _39  and  _42
REMARK   21  A    between atoms: _45  and  _47
REMARK   22  A    between atoms: _47  and  _48
REMARK   23  A    between atoms: _51  and  _53
REMARK   24  A    between atoms: _53  and  _54
REMARK   25  A    between atoms: _53  and  _56
REMARK   26  A    between atoms: _56  and  _57
REMARK   27  A    between atoms: _60  and  _62
REMARK   28  A    between atoms: _62  and  _63
REMARK   29  A    between atoms: _62  and  _65
REMARK   30  A    between atoms: _65  and  _66
REMARK   31  A    between atoms: _70  and  _71
REMARK   32  A    between atoms: _77  and  _78
REMARK   33  A    between atoms: _83  and  _85
REMARK   34  A    between atoms: _85  and  _86
REMARK   35  A    between atoms: _89  and  _91
REMARK   36  A    between atoms: _91  and  _92
REMARK   37  A    between atoms: _91  and  _94
REMARK   38  A    between atoms: _94  and  _95
REMARK   39  A    between atoms: _95  and  _130
REMARK   40  A    between atoms: _96  and  _98
REMARK   41  A    between atoms: _98  and  _99
REMARK   42  A    between atoms: _101  and  _103
REMARK   43  A    between atoms: _103  and  _104
REMARK   44  A    between atoms: _103  and  _106
REMARK   45  A    between atoms: _106  and  _107
REMARK   46  A    between atoms: _107  and  _108
REMARK   47  A    between atoms: _108  and  _109
REMARK   48  A    between atoms: _118  and  _120
REMARK   49  A    between atoms: _120  and  _121
REMARK   50  A    between atoms: _124  and  _126
REMARK   51  A    between atoms: _126  and  _127
REMARK   52  A    between atoms: _126  and  _129
REMARK   53  A    between atoms: _129  and  _130
REMARK   54  A    between atoms: _131  and  _133
REMARK   55  A    between atoms: _133  and  _134
REMARK   56  A    between atoms: _136  and  _138
REMARK   57  A    between atoms: _138  and  _139
REMARK   58  A    between atoms: _138  and  _141
REMARK   59  A    between atoms: _144  and  _146
REMARK   60  A    between atoms: _146  and  _147
REMARK   61  A    between atoms: _150  and  _152
REMARK   62  A    between atoms: _152  and  _153
REMARK   63  A    between atoms: _152  and  _155
REMARK   64  A    between atoms: _155  and  _156
REMARK   65  A    between atoms: _159  and  _161
REMARK   66  A    between atoms: _161  and  _162
REMARK   67  A    between atoms: _164  and  _166
REMARK   68  A    between atoms: _166  and  _167
REMARK   69  A    between atoms: _171  and  _172
REMARK   70  A    between atoms: _177  and  _179
REMARK   71  A    between atoms: _179  and  _180
REMARK   72  A    between atoms: _179  and  _182
REMARK   73  A    between atoms: _182  and  _183
REMARK   74  A    between atoms: _183  and  _184
REMARK   75  A    between atoms: _184  and  _185
REMARK   76  A    between atoms: _194  and  _196
REMARK   77  A    between atoms: _196  and  _197
REMARK   78  A    between atoms: _196  and  _199
REMARK   79  A    between atoms: _199  and  _200
REMARK   80  A    between atoms: _200  and  _201
REMARK   81  A    between atoms: _201  and  _202
REMARK   82  A    between atoms: _211  and  _213
REMARK   83  A    between atoms: _213  and  _214
REMARK   84  A    between atoms: _213  and  _216
REMARK   85  A    between atoms: _216  and  _217
REMARK   86  A    between atoms: _222  and  _224
REMARK   87  A    between atoms: _224  and  _225
REMARK   88  A    between atoms: _224  and  _227
REMARK   89  A    between atoms: _227  and  _228
REMARK   90  A    between atoms: _228  and  _229
REMARK   91  A    between atoms: _232  and  _234
REMARK   92  A    between atoms: _234  and  _235
REMARK   93  A    between atoms: _234  and  _237
REMARK   94  A    between atoms: _237  and  _238
REMARK   95  A    between atoms: _238  and  _239
REMARK   96  A    between atoms: _239  and  _240
REMARK                            x       y       z     vdW  Elec       q    Type
REMARK                         _______ _______ _______ _____ _____    ______ ____
ROOT
ATOM      1  O   HOH     1     -32.397 -25.165 -49.007  0.00  0.00    +0.000 OA
ENDROOT
TORSDOF 0
REMARK  Name = ../refined-set-2016/3uil/3uil_pocket.pdb
REMARK  96 active torsions:
REMARK  status: ('A' for Active; 'I' for Inactive)
REMARK    1  A    between atoms: _1  and  _3
REMARK    2  A    between atoms: _3  and  _4
REMARK    3  A    between atoms: _3  and  _6
REMARK    4  A    between atoms: _6  and  _7
REMARK    5  A    between atoms: _7  and  _36
REMARK    6  A    between atoms: _8  and  _10
REMARK    7  A    between atoms: _10  and  _11
REMARK    8  A    between atoms: _13  and  _15
REMARK    9  A    between atoms: _15  and  _16
REMARK   10  A    between atoms: _15  and  _18
REMARK   11  A    between atoms: _18  and  _19
REMARK   12  A    between atoms: _24  and  _26
REMARK   13  A    between atoms: _26  and  _27
REMARK   14  A    between atoms: _30  and  _32
REMARK   15  A    between atoms: _32  and  _33
REMARK   16  A    between atoms: _32  and  _35
REMARK   17  A    between atoms: _35  and  _36
REMARK   18  A    between atoms: _37  and  _39
REMARK   19  A    between atoms: _39  and  _40
REMARK   20  A    between atoms: _39  and  _42
REMARK   21  A    between atoms: _45  and  _47
REMARK   22  A    between atoms: _47  and  _48
REMARK   23  A    between atoms: _51  and  _53
REMARK   24  A    between atoms: _53  and  _54
REMARK   25  A    between atoms: _53  and  _56
REMARK   26  A    between atoms: _56  and  _57
REMARK   27  A    between atoms: _60  and  _62
REMARK   28  A    between atoms: _62  and  _63
REMARK   29  A    between atoms: _62  and  _65
REMARK   30  A    between atoms: _65  and  _66
REMARK   31  A    between atoms: _70  and  _71
REMARK   32  A    between atoms: _77  and  _78
REMARK   33  A    between atoms: _83  and  _85
REMARK   34  A    between atoms: _85  and  _86
REMARK   35  A    between atoms: _89  and  _91
REMARK   36  A    between atoms: _91  and  _92
REMARK   37  A    between atoms: _91  and  _94
REMARK   38  A    between atoms: _94  and  _95
REMARK   39  A    between atoms: _95  and  _130
REMARK   40  A    between atoms: _96  and  _98
REMARK   41  A    between atoms: _98  and  _99
REMARK   42  A    between atoms: _101  and  _103
REMARK   43  A    between atoms: _103  and  _104
REMARK   44  A    between atoms: _103  and  _106
REMARK   45  A    between atoms: _106  and  _107
REMARK   46  A    between atoms: _107  and  _108
REMARK   47  A    between atoms: _108  and  _109
REMARK   48  A    between atoms: _118  and  _120
REMARK   49  A    between atoms: _120  and  _121
REMARK   50  A    between atoms: _124  and  _126
REMARK   51  A    between atoms: _126  and  _127
REMARK   52  A    between atoms: _126  and  _129
REMARK   53  A    between atoms: _129  and  _130
REMARK   54  A    between atoms: _131  and  _133
REMARK   55  A    between atoms: _133  and  _134
REMARK   56  A    between atoms: _136  and  _138
REMARK   57  A    between atoms: _138  and  _139
REMARK   58  A    between atoms: _138  and  _141
REMARK   59  A    between atoms: _144  and  _146
REMARK   60  A    between atoms: _146  and  _147
REMARK   61  A    between atoms: _150  and  _152
REMARK   62  A    between atoms: _152  and  _153
REMARK   63  A    between atoms: _152  and  _155
REMARK   64  A    between atoms: _155  and  _156
REMARK   65  A    between atoms: _159  and  _161
REMARK   66  A    between atoms: _161  and  _162
REMARK   67  A    between atoms: _164  and  _166
REMARK   68  A    between atoms: _166  and  _167
REMARK   69  A    between atoms: _171  and  _172
REMARK   70  A    between atoms: _177  and  _179
REMARK   71  A    between atoms: _179  and  _180
REMARK   72  A    between atoms: _179  and  _182
REMARK   73  A    between atoms: _182  and  _183
REMARK   74  A    between atoms: _183  and  _184
REMARK   75  A    between atoms: _184  and  _185
REMARK   76  A    between atoms: _194  and  _196
REMARK   77  A    between atoms: _196  and  _197
REMARK   78  A    between atoms: _196  and  _199
REMARK   79  A    between atoms: _199  and  _200
REMARK   80  A    between atoms: _200  and  _201
REMARK   81  A    between atoms: _201  and  _202
REMARK   82  A    between atoms: _211  and  _213
REMARK   83  A    between atoms: _213  and  _214
REMARK   84  A    between atoms: _213  and  _216
REMARK   85  A    between atoms: _216  and  _217
REMARK   86  A    between atoms: _222  and  _224
REMARK   87  A    between atoms: _224  and  _225
REMARK   88  A    between atoms: _224  and  _227
REMARK   89  A    between atoms: _227  and  _228
REMARK   90  A    between atoms: _228  and  _229
REMARK   91  A    between atoms: _232  and  _234
REMARK   92  A    between atoms: _234  and  _235
REMARK   93  A    between atoms: _234  and  _237
REMARK   94  A    between atoms: _237  and  _238
REMARK   95  A    between atoms: _238  and  _239
REMARK   96  A    between atoms: _239  and  _240
REMARK                            x       y       z     vdW  Elec       q    Type
REMARK                         _______ _______ _______ _____ _____    ______ ____
ROOT
ATOM      1  O   HOH     1     -36.786 -11.492 -43.953  0.00  0.00    +0.000 OA
ENDROOT
TORSDOF 0
REMARK  Name = ../refined-set-2016/3uil/3uil_pocket.pdb
REMARK  96 active torsions:
REMARK  status: ('A' for Active; 'I' for Inactive)
REMARK    1  A    between atoms: _1  and  _3
REMARK    2  A    between atoms: _3  and  _4
REMARK    3  A    between atoms: _3  and  _6
REMARK    4  A    between atoms: _6  and  _7
REMARK    5  A    between atoms: _7  and  _36
REMARK    6  A    between atoms: _8  and  _10
REMARK    7  A    between atoms: _10  and  _11
REMARK    8  A    between atoms: _13  and  _15
REMARK    9  A    between atoms: _15  and  _16
REMARK   10  A    between atoms: _15  and  _18
REMARK   11  A    between atoms: _18  and  _19
REMARK   12  A    between atoms: _24  and  _26
REMARK   13  A    between atoms: _26  and  _27
REMARK   14  A    between atoms: _30  and  _32
REMARK   15  A    between atoms: _32  and  _33
REMARK   16  A    between atoms: _32  and  _35
REMARK   17  A    between atoms: _35  and  _36
REMARK   18  A    between atoms: _37  and  _39
REMARK   19  A    between atoms: _39  and  _40
REMARK   20  A    between atoms: _39  and  _42
REMARK   21  A    between atoms: _45  and  _47
REMARK   22  A    between atoms: _47  and  _48
REMARK   23  A    between atoms: _51  and  _53
REMARK   24  A    between atoms: _53  and  _54
REMARK   25  A    between atoms: _53  and  _56
REMARK   26  A    between atoms: _56  and  _57
REMARK   27  A    between atoms: _60  and  _62
REMARK   28  A    between atoms: _62  and  _63
REMARK   29  A    between atoms: _62  and  _65
REMARK   30  A    between atoms: _65  and  _66
REMARK   31  A    between atoms: _70  and  _71
REMARK   32  A    between atoms: _77  and  _78
REMARK   33  A    between atoms: _83  and  _85
REMARK   34  A    between atoms: _85  and  _86
REMARK   35  A    between atoms: _89  and  _91
REMARK   36  A    between atoms: _91  and  _92
REMARK   37  A    between atoms: _91  and  _94
REMARK   38  A    between atoms: _94  and  _95
REMARK   39  A    between atoms: _95  and  _130
REMARK   40  A    between atoms: _96  and  _98
REMARK   41  A    between atoms: _98  and  _99
REMARK   42  A    between atoms: _101  and  _103
REMARK   43  A    between atoms: _103  and  _104
REMARK   44  A    between atoms: _103  and  _106
REMARK   45  A    between atoms: _106  and  _107
REMARK   46  A    between atoms: _107  and  _108
REMARK   47  A    between atoms: _108  and  _109
REMARK   48  A    between atoms: _118  and  _120
REMARK   49  A    between atoms: _120  and  _121
REMARK   50  A    between atoms: _124  and  _126
REMARK   51  A    between atoms: _126  and  _127
REMARK   52  A    between atoms: _126  and  _129
REMARK   53  A    between atoms: _129  and  _130
REMARK   54  A    between atoms: _131  and  _133
REMARK   55  A    between atoms: _133  and  _134
REMARK   56  A    between atoms: _136  and  _138
REMARK   57  A    between atoms: _138  and  _139
REMARK   58  A    between atoms: _138  and  _141
REMARK   59  A    between atoms: _144  and  _146
REMARK   60  A    between atoms: _146  and  _147
REMARK   61  A    between atoms: _150  and  _152
REMARK   62  A    between atoms: _152  and  _153
REMARK   63  A    between atoms: _152  and  _155
REMARK   64  A    between atoms: _155  and  _156
REMARK   65  A    between atoms: _159  and  _161
REMARK   66  A    between atoms: _161  and  _162
REMARK   67  A    between atoms: _164  and  _166
REMARK   68  A    between atoms: _166  and  _167
REMARK   69  A    between atoms: _171  and  _172
REMARK   70  A    between atoms: _177  and  _179
REMARK   71  A    between atoms: _179  and  _180
REMARK   72  A    between atoms: _179  and  _182
REMARK   73  A    between atoms: _182  and  _183
REMARK   74  A    between atoms: _183  and  _184
REMARK   75  A    between atoms: _184  and  _185
REMARK   76  A    between atoms: _194  and  _196
REMARK   77  A    between atoms: _196  and  _197
REMARK   78  A    between atoms: _196  and  _199
REMARK   79  A    between atoms: _199  and  _200
REMARK   80  A    between atoms: _200  and  _201
REMARK   81  A    between atoms: _201  and  _202
REMARK   82  A    between atoms: _211  and  _213
REMARK   83  A    between atoms: _213  and  _214
REMARK   84  A    between atoms: _213  and  _216
REMARK   85  A    between atoms: _216  and  _217
REMARK   86  A    between atoms: _222  and  _224
REMARK   87  A    between atoms: _224  and  _225
REMARK   88  A    between atoms: _224  and  _227
REMARK   89  A    between atoms: _227  and  _228
REMARK   90  A    between atoms: _228  and  _229
REMARK   91  A    between atoms: _232  and  _234
REMARK   92  A    between atoms: _234  and  _235
REMARK   93  A    between atoms: _234  and  _237
REMARK   94  A    between atoms: _237  and  _238
REMARK   95  A    between atoms: _238  and  _239
REMARK   96  A    between atoms: _239  and  _240
REMARK                            x       y       z     vdW  Elec       q    Type
REMARK                         _______ _______ _______ _____ _____    ______ ____
ROOT
ATOM      1  O   HOH     1     -45.169 -18.769 -45.937  0.00  0.00    +0.000 OA
ENDROOT
TORSDOF 0
REMARK  Name = ../refined-set-2016/3uil/3uil_pocket.pdb
REMARK  96 active torsions:
REMARK  status: ('A' for Active; 'I' for Inactive)
REMARK    1  A    between atoms: _1  and  _3
REMARK    2  A    between atoms: _3  and  _4
REMARK    3  A    between atoms: _3  and  _6
REMARK    4  A    between atoms: _6  and  _7
REMARK    5  A    between atoms: _7  and  _36
REMARK    6  A    between atoms: _8  and  _10
REMARK    7  A    between atoms: _10  and  _11
REMARK    8  A    between atoms: _13  and  _15
REMARK    9  A    between atoms: _15  and  _16
REMARK   10  A    between atoms: _15  and  _18
REMARK   11  A    between atoms: _18  and  _19
REMARK   12  A    between atoms: _24  and  _26
REMARK   13  A    between atoms: _26  and  _27
REMARK   14  A    between atoms: _30  and  _32
REMARK   15  A    between atoms: _32  and  _33
REMARK   16  A    between atoms: _32  and  _35
REMARK   17  A    between atoms: _35  and  _36
REMARK   18  A    between atoms: _37  and  _39
REMARK   19  A    between atoms: _39  and  _40
REMARK   20  A    between atoms: _39  and  _42
REMARK   21  A    between atoms: _45  and  _47
REMARK   22  A    between atoms: _47  and  _48
REMARK   23  A    between atoms: _51  and  _53
REMARK   24  A    between atoms: _53  and  _54
REMARK   25  A    between atoms: _53  and  _56
REMARK   26  A    between atoms: _56  and  _57
REMARK   27  A    between atoms: _60  and  _62
REMARK   28  A    between atoms: _62  and  _63
REMARK   29  A    between atoms: _62  and  _65
REMARK   30  A    between atoms: _65  and  _66
REMARK   31  A    between atoms: _70  and  _71
REMARK   32  A    between atoms: _77  and  _78
REMARK   33  A    between atoms: _83  and  _85
REMARK   34  A    between atoms: _85  and  _86
REMARK   35  A    between atoms: _89  and  _91
REMARK   36  A    between atoms: _91  and  _92
REMARK   37  A    between atoms: _91  and  _94
REMARK   38  A    between atoms: _94  and  _95
REMARK   39  A    between atoms: _95  and  _130
REMARK   40  A    between atoms: _96  and  _98
REMARK   41  A    between atoms: _98  and  _99
REMARK   42  A    between atoms: _101  and  _103
REMARK   43  A    between atoms: _103  and  _104
REMARK   44  A    between atoms: _103  and  _106
REMARK   45  A    between atoms: _106  and  _107
REMARK   46  A    between atoms: _107  and  _108
REMARK   47  A    between atoms: _108  and  _109
REMARK   48  A    between atoms: _118  and  _120
REMARK   49  A    between atoms: _120  and  _121
REMARK   50  A    between atoms: _124  and  _126
REMARK   51  A    between atoms: _126  and  _127
REMARK   52  A    between atoms: _126  and  _129
REMARK   53  A    between atoms: _129  and  _130
REMARK   54  A    between atoms: _131  and  _133
REMARK   55  A    between atoms: _133  and  _134
REMARK   56  A    between atoms: _136  and  _138
REMARK   57  A    between atoms: _138  and  _139
REMARK   58  A    between atoms: _138  and  _141
REMARK   59  A    between atoms: _144  and  _146
REMARK   60  A    between atoms: _146  and  _147
REMARK   61  A    between atoms: _150  and  _152
REMARK   62  A    between atoms: _152  and  _153
REMARK   63  A    between atoms: _152  and  _155
REMARK   64  A    between atoms: _155  and  _156
REMARK   65  A    between atoms: _159  and  _161
REMARK   66  A    between atoms: _161  and  _162
REMARK   67  A    between atoms: _164  and  _166
REMARK   68  A    between atoms: _166  and  _167
REMARK   69  A    between atoms: _171  and  _172
REMARK   70  A    between atoms: _177  and  _179
REMARK   71  A    between atoms: _179  and  _180
REMARK   72  A    between atoms: _179  and  _182
REMARK   73  A    between atoms: _182  and  _183
REMARK   74  A    between atoms: _183  and  _184
REMARK   75  A    between atoms: _184  and  _185
REMARK   76  A    between atoms: _194  and  _196
REMARK   77  A    between atoms: _196  and  _197
REMARK   78  A    between atoms: _196  and  _199
REMARK   79  A    between atoms: _199  and  _200
REMARK   80  A    between atoms: _200  and  _201
REMARK   81  A    between atoms: _201  and  _202
REMARK   82  A    between atoms: _211  and  _213
REMARK   83  A    between atoms: _213  and  _214
REMARK   84  A    between atoms: _213  and  _216
REMARK   85  A    between atoms: _216  and  _217
REMARK   86  A    between atoms: _222  and  _224
REMARK   87  A    between atoms: _224  and  _225
REMARK   88  A    between atoms: _224  and  _227
REMARK   89  A    between atoms: _227  and  _228
REMARK   90  A    between atoms: _228  and  _229
REMARK   91  A    between atoms: _232  and  _234
REMARK   92  A    between atoms: _234  and  _235
REMARK   93  A    between atoms: _234  and  _237
REMARK   94  A    between atoms: _237  and  _238
REMARK   95  A    between atoms: _238  and  _239
REMARK   96  A    between atoms: _239  and  _240
REMARK                            x       y       z     vdW  Elec       q    Type
REMARK                         _______ _______ _______ _____ _____    ______ ____
ROOT
ATOM      1  O   HOH     1     -31.024 -20.608 -40.628  0.00  0.00    +0.000 OA
ENDROOT
TORSDOF 0
REMARK  Name = ../refined-set-2016/3uil/3uil_pocket.pdb
REMARK  96 active torsions:
REMARK  status: ('A' for Active; 'I' for Inactive)
REMARK    1  A    between atoms: _1  and  _3
REMARK    2  A    between atoms: _3  and  _4
REMARK    3  A    between atoms: _3  and  _6
REMARK    4  A    between atoms: _6  and  _7
REMARK    5  A    between atoms: _7  and  _36
REMARK    6  A    between atoms: _8  and  _10
REMARK    7  A    between atoms: _10  and  _11
REMARK    8  A    between atoms: _13  and  _15
REMARK    9  A    between atoms: _15  and  _16
REMARK   10  A    between atoms: _15  and  _18
REMARK   11  A    between atoms: _18  and  _19
REMARK   12  A    between atoms: _24  and  _26
REMARK   13  A    between atoms: _26  and  _27
REMARK   14  A    between atoms: _30  and  _32
REMARK   15  A    between atoms: _32  and  _33
REMARK   16  A    between atoms: _32  and  _35
REMARK   17  A    between atoms: _35  and  _36
REMARK   18  A    between atoms: _37  and  _39
REMARK   19  A    between atoms: _39  and  _40
REMARK   20  A    between atoms: _39  and  _42
REMARK   21  A    between atoms: _45  and  _47
REMARK   22  A    between atoms: _47  and  _48
REMARK   23  A    between atoms: _51  and  _53
REMARK   24  A    between atoms: _53  and  _54
REMARK   25  A    between atoms: _53  and  _56
REMARK   26  A    between atoms: _56  and  _57
REMARK   27  A    between atoms: _60  and  _62
REMARK   28  A    between atoms: _62  and  _63
REMARK   29  A    between atoms: _62  and  _65
REMARK   30  A    between atoms: _65  and  _66
REMARK   31  A    between atoms: _70  and  _71
REMARK   32  A    between atoms: _77  and  _78
REMARK   33  A    between atoms: _83  and  _85
REMARK   34  A    between atoms: _85  and  _86
REMARK   35  A    between atoms: _89  and  _91
REMARK   36  A    between atoms: _91  and  _92
REMARK   37  A    between atoms: _91  and  _94
REMARK   38  A    between atoms: _94  and  _95
REMARK   39  A    between atoms: _95  and  _130
REMARK   40  A    between atoms: _96  and  _98
REMARK   41  A    between atoms: _98  and  _99
REMARK   42  A    between atoms: _101  and  _103
REMARK   43  A    between atoms: _103  and  _104
REMARK   44  A    between atoms: _103  and  _106
REMARK   45  A    between atoms: _106  and  _107
REMARK   46  A    between atoms: _107  and  _108
REMARK   47  A    between atoms: _108  and  _109
REMARK   48  A    between atoms: _118  and  _120
REMARK   49  A    between atoms: _120  and  _121
REMARK   50  A    between atoms: _124  and  _126
REMARK   51  A    between atoms: _126  and  _127
REMARK   52  A    between atoms: _126  and  _129
REMARK   53  A    between atoms: _129  and  _130
REMARK   54  A    between atoms: _131  and  _133
REMARK   55  A    between atoms: _133  and  _134
REMARK   56  A    between atoms: _136  and  _138
REMARK   57  A    between atoms: _138  and  _139
REMARK   58  A    between atoms: _138  and  _141
REMARK   59  A    between atoms: _144  and  _146
REMARK   60  A    between atoms: _146  and  _147
REMARK   61  A    between atoms: _150  and  _152
REMARK   62  A    between atoms: _152  and  _153
REMARK   63  A    between atoms: _152  and  _155
REMARK   64  A    between atoms: _155  and  _156
REMARK   65  A    between atoms: _159  and  _161
REMARK   66  A    between atoms: _161  and  _162
REMARK   67  A    between atoms: _164  and  _166
REMARK   68  A    between atoms: _166  and  _167
REMARK   69  A    between atoms: _171  and  _172
REMARK   70  A    between atoms: _177  and  _179
REMARK   71  A    between atoms: _179  and  _180
REMARK   72  A    between atoms: _179  and  _182
REMARK   73  A    between atoms: _182  and  _183
REMARK   74  A    between atoms: _183  and  _184
REMARK   75  A    between atoms: _184  and  _185
REMARK   76  A    between atoms: _194  and  _196
REMARK   77  A    between atoms: _196  and  _197
REMARK   78  A    between atoms: _196  and  _199
REMARK   79  A    between atoms: _199  and  _200
REMARK   80  A    between atoms: _200  and  _201
REMARK   81  A    between atoms: _201  and  _202
REMARK   82  A    between atoms: _211  and  _213
REMARK   83  A    between atoms: _213  and  _214
REMARK   84  A    between atoms: _213  and  _216
REMARK   85  A    between atoms: _216  and  _217
REMARK   86  A    between atoms: _222  and  _224
REMARK   87  A    between atoms: _224  and  _225
REMARK   88  A    between atoms: _224  and  _227
REMARK   89  A    between atoms: _227  and  _228
REMARK   90  A    between atoms: _228  and  _229
REMARK   91  A    between atoms: _232  and  _234
REMARK   92  A    between atoms: _234  and  _235
REMARK   93  A    between atoms: _234  and  _237
REMARK   94  A    between atoms: _237  and  _238
REMARK   95  A    between atoms: _238  and  _239
REMARK   96  A    between atoms: _239  and  _240
REMARK                            x       y       z     vdW  Elec       q    Type
REMARK                         _______ _______ _______ _____ _____    ______ ____
ROOT
ATOM      1  O   HOH     1     -33.062 -19.989 -34.466  0.00  0.00    +0.000 OA
ENDROOT
TORSDOF 0
REMARK  Name = ../refined-set-2016/3uil/3uil_pocket.pdb
REMARK  96 active torsions:
REMARK  status: ('A' for Active; 'I' for Inactive)
REMARK    1  A    between atoms: _1  and  _3
REMARK    2  A    between atoms: _3  and  _4
REMARK    3  A    between atoms: _3  and  _6
REMARK    4  A    between atoms: _6  and  _7
REMARK    5  A    between atoms: _7  and  _36
REMARK    6  A    between atoms: _8  and  _10
REMARK    7  A    between atoms: _10  and  _11
REMARK    8  A    between atoms: _13  and  _15
REMARK    9  A    between atoms: _15  and  _16
REMARK   10  A    between atoms: _15  and  _18
REMARK   11  A    between atoms: _18  and  _19
REMARK   12  A    between atoms: _24  and  _26
REMARK   13  A    between atoms: _26  and  _27
REMARK   14  A    between atoms: _30  and  _32
REMARK   15  A    between atoms: _32  and  _33
REMARK   16  A    between atoms: _32  and  _35
REMARK   17  A    between atoms: _35  and  _36
REMARK   18  A    between atoms: _37  and  _39
REMARK   19  A    between atoms: _39  and  _40
REMARK   20  A    between atoms: _39  and  _42
REMARK   21  A    between atoms: _45  and  _47
REMARK   22  A    between atoms: _47  and  _48
REMARK   23  A    between atoms: _51  and  _53
REMARK   24  A    between atoms: _53  and  _54
REMARK   25  A    between atoms: _53  and  _56
REMARK   26  A    between atoms: _56  and  _57
REMARK   27  A    between atoms: _60  and  _62
REMARK   28  A    between atoms: _62  and  _63
REMARK   29  A    between atoms: _62  and  _65
REMARK   30  A    between atoms: _65  and  _66
REMARK   31  A    between atoms: _70  and  _71
REMARK   32  A    between atoms: _77  and  _78
REMARK   33  A    between atoms: _83  and  _85
REMARK   34  A    between atoms: _85  and  _86
REMARK   35  A    between atoms: _89  and  _91
REMARK   36  A    between atoms: _91  and  _92
REMARK   37  A    between atoms: _91  and  _94
REMARK   38  A    between atoms: _94  and  _95
REMARK   39  A    between atoms: _95  and  _130
REMARK   40  A    between atoms: _96  and  _98
REMARK   41  A    between atoms: _98  and  _99
REMARK   42  A    between atoms: _101  and  _103
REMARK   43  A    between atoms: _103  and  _104
REMARK   44  A    between atoms: _103  and  _106
REMARK   45  A    between atoms: _106  and  _107
REMARK   46  A    between atoms: _107  and  _108
REMARK   47  A    between atoms: _108  and  _109
REMARK   48  A    between atoms: _118  and  _120
REMARK   49  A    between atoms: _120  and  _121
REMARK   50  A    between atoms: _124  and  _126
REMARK   51  A    between atoms: _126  and  _127
REMARK   52  A    between atoms: _126  and  _129
REMARK   53  A    between atoms: _129  and  _130
REMARK   54  A    between atoms: _131  and  _133
REMARK   55  A    between atoms: _133  and  _134
REMARK   56  A    between atoms: _136  and  _138
REMARK   57  A    between atoms: _138  and  _139
REMARK   58  A    between atoms: _138  and  _141
REMARK   59  A    between atoms: _144  and  _146
REMARK   60  A    between atoms: _146  and  _147
REMARK   61  A    between atoms: _150  and  _152
REMARK   62  A    between atoms: _152  and  _153
REMARK   63  A    between atoms: _152  and  _155
REMARK   64  A    between atoms: _155  and  _156
REMARK   65  A    between atoms: _159  and  _161
REMARK   66  A    between atoms: _161  and  _162
REMARK   67  A    between atoms: _164  and  _166
REMARK   68  A    between atoms: _166  and  _167
REMARK   69  A    between atoms: _171  and  _172
REMARK   70  A    between atoms: _177  and  _179
REMARK   71  A    between atoms: _179  and  _180
REMARK   72  A    between atoms: _179  and  _182
REMARK   73  A    between atoms: _182  and  _183
REMARK   74  A    between atoms: _183  and  _184
REMARK   75  A    between atoms: _184  and  _185
REMARK   76  A    between atoms: _194  and  _196
REMARK   77  A    between atoms: _196  and  _197
REMARK   78  A    between atoms: _196  and  _199
REMARK   79  A    between atoms: _199  and  _200
REMARK   80  A    between atoms: _200  and  _201
REMARK   81  A    between atoms: _201  and  _202
REMARK   82  A    between atoms: _211  and  _213
REMARK   83  A    between atoms: _213  and  _214
REMARK   84  A    between atoms: _213  and  _216
REMARK   85  A    between atoms: _216  and  _217
REMARK   86  A    between atoms: _222  and  _224
REMARK   87  A    between atoms: _224  and  _225
REMARK   88  A    between atoms: _224  and  _227
REMARK   89  A    between atoms: _227  and  _228
REMARK   90  A    between atoms: _228  and  _229
REMARK   91  A    between atoms: _232  and  _234
REMARK   92  A    between atoms: _234  and  _235
REMARK   93  A    between atoms: _234  and  _237
REMARK   94  A    between atoms: _237  and  _238
REMARK   95  A    between atoms: _238  and  _239
REMARK   96  A    between atoms: _239  and  _240
REMARK                            x       y       z     vdW  Elec       q    Type
REMARK                         _______ _______ _______ _____ _____    ______ ____
ROOT
ATOM      1  O   HOH     1     -45.246 -19.012 -37.514  0.00  0.00    +0.000 OA
ENDROOT
TORSDOF 0
REMARK  Name = ../refined-set-2016/3uil/3uil_pocket.pdb
REMARK  96 active torsions:
REMARK  status: ('A' for Active; 'I' for Inactive)
REMARK    1  A    between atoms: _1  and  _3
REMARK    2  A    between atoms: _3  and  _4
REMARK    3  A    between atoms: _3  and  _6
REMARK    4  A    between atoms: _6  and  _7
REMARK    5  A    between atoms: _7  and  _36
REMARK    6  A    between atoms: _8  and  _10
REMARK    7  A    between atoms: _10  and  _11
REMARK    8  A    between atoms: _13  and  _15
REMARK    9  A    between atoms: _15  and  _16
REMARK   10  A    between atoms: _15  and  _18
REMARK   11  A    between atoms: _18  and  _19
REMARK   12  A    between atoms: _24  and  _26
REMARK   13  A    between atoms: _26  and  _27
REMARK   14  A    between atoms: _30  and  _32
REMARK   15  A    between atoms: _32  and  _33
REMARK   16  A    between atoms: _32  and  _35
REMARK   17  A    between atoms: _35  and  _36
REMARK   18  A    between atoms: _37  and  _39
REMARK   19  A    between atoms: _39  and  _40
REMARK   20  A    between atoms: _39  and  _42
REMARK   21  A    between atoms: _45  and  _47
REMARK   22  A    between atoms: _47  and  _48
REMARK   23  A    between atoms: _51  and  _53
REMARK   24  A    between atoms: _53  and  _54
REMARK   25  A    between atoms: _53  and  _56
REMARK   26  A    between atoms: _56  and  _57
REMARK   27  A    between atoms: _60  and  _62
REMARK   28  A    between atoms: _62  and  _63
REMARK   29  A    between atoms: _62  and  _65
REMARK   30  A    between atoms: _65  and  _66
REMARK   31  A    between atoms: _70  and  _71
REMARK   32  A    between atoms: _77  and  _78
REMARK   33  A    between atoms: _83  and  _85
REMARK   34  A    between atoms: _85  and  _86
REMARK   35  A    between atoms: _89  and  _91
REMARK   36  A    between atoms: _91  and  _92
REMARK   37  A    between atoms: _91  and  _94
REMARK   38  A    between atoms: _94  and  _95
REMARK   39  A    between atoms: _95  and  _130
REMARK   40  A    between atoms: _96  and  _98
REMARK   41  A    between atoms: _98  and  _99
REMARK   42  A    between atoms: _101  and  _103
REMARK   43  A    between atoms: _103  and  _104
REMARK   44  A    between atoms: _103  and  _106
REMARK   45  A    between atoms: _106  and  _107
REMARK   46  A    between atoms: _107  and  _108
REMARK   47  A    between atoms: _108  and  _109
REMARK   48  A    between atoms: _118  and  _120
REMARK   49  A    between atoms: _120  and  _121
REMARK   50  A    between atoms: _124  and  _126
REMARK   51  A    between atoms: _126  and  _127
REMARK   52  A    between atoms: _126  and  _129
REMARK   53  A    between atoms: _129  and  _130
REMARK   54  A    between atoms: _131  and  _133
REMARK   55  A    between atoms: _133  and  _134
REMARK   56  A    between atoms: _136  and  _138
REMARK   57  A    between atoms: _138  and  _139
REMARK   58  A    between atoms: _138  and  _141
REMARK   59  A    between atoms: _144  and  _146
REMARK   60  A    between atoms: _146  and  _147
REMARK   61  A    between atoms: _150  and  _152
REMARK   62  A    between atoms: _152  and  _153
REMARK   63  A    between atoms: _152  and  _155
REMARK   64  A    between atoms: _155  and  _156
REMARK   65  A    between atoms: _159  and  _161
REMARK   66  A    between atoms: _161  and  _162
REMARK   67  A    between atoms: _164  and  _166
REMARK   68  A    between atoms: _166  and  _167
REMARK   69  A    between atoms: _171  and  _172
REMARK   70  A    between atoms: _177  and  _179
REMARK   71  A    between atoms: _179  and  _180
REMARK   72  A    between atoms: _179  and  _182
REMARK   73  A    between atoms: _182  and  _183
REMARK   74  A    between atoms: _183  and  _184
REMARK   75  A    between atoms: _184  and  _185
REMARK   76  A    between atoms: _194  and  _196
REMARK   77  A    between atoms: _196  and  _197
REMARK   78  A    between atoms: _196  and  _199
REMARK   79  A    between atoms: _199  and  _200
REMARK   80  A    between atoms: _200  and  _201
REMARK   81  A    between atoms: _201  and  _202
REMARK   82  A    between atoms: _211  and  _213
REMARK   83  A    between atoms: _213  and  _214
REMARK   84  A    between atoms: _213  and  _216
REMARK   85  A    between atoms: _216  and  _217
REMARK   86  A    between atoms: _222  and  _224
REMARK   87  A    between atoms: _224  and  _225
REMARK   88  A    between atoms: _224  and  _227
REMARK   89  A    between atoms: _227  and  _228
REMARK   90  A    between atoms: _228  and  _229
REMARK   91  A    between atoms: _232  and  _234
REMARK   92  A    between atoms: _234  and  _235
REMARK   93  A    between atoms: _234  and  _237
REMARK   94  A    between atoms: _237  and  _238
REMARK   95  A    between atoms: _238  and  _239
REMARK   96  A    between atoms: _239  and  _240
REMARK                            x       y       z     vdW  Elec       q    Type
REMARK                         _______ _______ _______ _____ _____    ______ ____
ROOT
ATOM      1  O   HOH     1     -38.196 -23.093 -37.254  0.00  0.00    +0.000 OA
ENDROOT
TORSDOF 0
REMARK  Name = ../refined-set-2016/3uil/3uil_pocket.pdb
REMARK  96 active torsions:
REMARK  status: ('A' for Active; 'I' for Inactive)
REMARK    1  A    between atoms: _1  and  _3
REMARK    2  A    between atoms: _3  and  _4
REMARK    3  A    between atoms: _3  and  _6
REMARK    4  A    between atoms: _6  and  _7
REMARK    5  A    between atoms: _7  and  _36
REMARK    6  A    between atoms: _8  and  _10
REMARK    7  A    between atoms: _10  and  _11
REMARK    8  A    between atoms: _13  and  _15
REMARK    9  A    between atoms: _15  and  _16
REMARK   10  A    between atoms: _15  and  _18
REMARK   11  A    between atoms: _18  and  _19
REMARK   12  A    between atoms: _24  and  _26
REMARK   13  A    between atoms: _26  and  _27
REMARK   14  A    between atoms: _30  and  _32
REMARK   15  A    between atoms: _32  and  _33
REMARK   16  A    between atoms: _32  and  _35
REMARK   17  A    between atoms: _35  and  _36
REMARK   18  A    between atoms: _37  and  _39
REMARK   19  A    between atoms: _39  and  _40
REMARK   20  A    between atoms: _39  and  _42
REMARK   21  A    between atoms: _45  and  _47
REMARK   22  A    between atoms: _47  and  _48
REMARK   23  A    between atoms: _51  and  _53
REMARK   24  A    between atoms: _53  and  _54
REMARK   25  A    between atoms: _53  and  _56
REMARK   26  A    between atoms: _56  and  _57
REMARK   27  A    between atoms: _60  and  _62
REMARK   28  A    between atoms: _62  and  _63
REMARK   29  A    between atoms: _62  and  _65
REMARK   30  A    between atoms: _65  and  _66
REMARK   31  A    between atoms: _70  and  _71
REMARK   32  A    between atoms: _77  and  _78
REMARK   33  A    between atoms: _83  and  _85
REMARK   34  A    between atoms: _85  and  _86
REMARK   35  A    between atoms: _89  and  _91
REMARK   36  A    between atoms: _91  and  _92
REMARK   37  A    between atoms: _91  and  _94
REMARK   38  A    between atoms: _94  and  _95
REMARK   39  A    between atoms: _95  and  _130
REMARK   40  A    between atoms: _96  and  _98
REMARK   41  A    between atoms: _98  and  _99
REMARK   42  A    between atoms: _101  and  _103
REMARK   43  A    between atoms: _103  and  _104
REMARK   44  A    between atoms: _103  and  _106
REMARK   45  A    between atoms: _106  and  _107
REMARK   46  A    between atoms: _107  and  _108
REMARK   47  A    between atoms: _108  and  _109
REMARK   48  A    between atoms: _118  and  _120
REMARK   49  A    between atoms: _120  and  _121
REMARK   50  A    between atoms: _124  and  _126
REMARK   51  A    between atoms: _126  and  _127
REMARK   52  A    between atoms: _126  and  _129
REMARK   53  A    between atoms: _129  and  _130
REMARK   54  A    between atoms: _131  and  _133
REMARK   55  A    between atoms: _133  and  _134
REMARK   56  A    between atoms: _136  and  _138
REMARK   57  A    between atoms: _138  and  _139
REMARK   58  A    between atoms: _138  and  _141
REMARK   59  A    between atoms: _144  and  _146
REMARK   60  A    between atoms: _146  and  _147
REMARK   61  A    between atoms: _150  and  _152
REMARK   62  A    between atoms: _152  and  _153
REMARK   63  A    between atoms: _152  and  _155
REMARK   64  A    between atoms: _155  and  _156
REMARK   65  A    between atoms: _159  and  _161
REMARK   66  A    between atoms: _161  and  _162
REMARK   67  A    between atoms: _164  and  _166
REMARK   68  A    between atoms: _166  and  _167
REMARK   69  A    between atoms: _171  and  _172
REMARK   70  A    between atoms: _177  and  _179
REMARK   71  A    between atoms: _179  and  _180
REMARK   72  A    between atoms: _179  and  _182
REMARK   73  A    between atoms: _182  and  _183
REMARK   74  A    between atoms: _183  and  _184
REMARK   75  A    between atoms: _184  and  _185
REMARK   76  A    between atoms: _194  and  _196
REMARK   77  A    between atoms: _196  and  _197
REMARK   78  A    between atoms: _196  and  _199
REMARK   79  A    between atoms: _199  and  _200
REMARK   80  A    between atoms: _200  and  _201
REMARK   81  A    between atoms: _201  and  _202
REMARK   82  A    between atoms: _211  and  _213
REMARK   83  A    between atoms: _213  and  _214
REMARK   84  A    between atoms: _213  and  _216
REMARK   85  A    between atoms: _216  and  _217
REMARK   86  A    between atoms: _222  and  _224
REMARK   87  A    between atoms: _224  and  _225
REMARK   88  A    between atoms: _224  and  _227
REMARK   89  A    between atoms: _227  and  _228
REMARK   90  A    between atoms: _228  and  _229
REMARK   91  A    between atoms: _232  and  _234
REMARK   92  A    between atoms: _234  and  _235
REMARK   93  A    between atoms: _234  and  _237
REMARK   94  A    between atoms: _237  and  _238
REMARK   95  A    between atoms: _238  and  _239
REMARK   96  A    between atoms: _239  and  _240
REMARK                            x       y       z     vdW  Elec       q    Type
REMARK                         _______ _______ _______ _____ _____    ______ ____
ROOT
ATOM      1  O   HOH     1     -34.475 -24.087 -34.228  0.00  0.00    +0.000 OA
ENDROOT
TORSDOF 0
REMARK  Name = ../refined-set-2016/3uil/3uil_pocket.pdb
REMARK  96 active torsions:
REMARK  status: ('A' for Active; 'I' for Inactive)
REMARK    1  A    between atoms: _1  and  _3
REMARK    2  A    between atoms: _3  and  _4
REMARK    3  A    between atoms: _3  and  _6
REMARK    4  A    between atoms: _6  and  _7
REMARK    5  A    between atoms: _7  and  _36
REMARK    6  A    between atoms: _8  and  _10
REMARK    7  A    between atoms: _10  and  _11
REMARK    8  A    between atoms: _13  and  _15
REMARK    9  A    between atoms: _15  and  _16
REMARK   10  A    between atoms: _15  and  _18
REMARK   11  A    between atoms: _18  and  _19
REMARK   12  A    between atoms: _24  and  _26
REMARK   13  A    between atoms: _26  and  _27
REMARK   14  A    between atoms: _30  and  _32
REMARK   15  A    between atoms: _32  and  _33
REMARK   16  A    between atoms: _32  and  _35
REMARK   17  A    between atoms: _35  and  _36
REMARK   18  A    between atoms: _37  and  _39
REMARK   19  A    between atoms: _39  and  _40
REMARK   20  A    between atoms: _39  and  _42
REMARK   21  A    between atoms: _45  and  _47
REMARK   22  A    between atoms: _47  and  _48
REMARK   23  A    between atoms: _51  and  _53
REMARK   24  A    between atoms: _53  and  _54
REMARK   25  A    between atoms: _53  and  _56
REMARK   26  A    between atoms: _56  and  _57
REMARK   27  A    between atoms: _60  and  _62
REMARK   28  A    between atoms: _62  and  _63
REMARK   29  A    between atoms: _62  and  _65
REMARK   30  A    between atoms: _65  and  _66
REMARK   31  A    between atoms: _70  and  _71
REMARK   32  A    between atoms: _77  and  _78
REMARK   33  A    between atoms: _83  and  _85
REMARK   34  A    between atoms: _85  and  _86
REMARK   35  A    between atoms: _89  and  _91
REMARK   36  A    between atoms: _91  and  _92
REMARK   37  A    between atoms: _91  and  _94
REMARK   38  A    between atoms: _94  and  _95
REMARK   39  A    between atoms: _95  and  _130
REMARK   40  A    between atoms: _96  and  _98
REMARK   41  A    between atoms: _98  and  _99
REMARK   42  A    between atoms: _101  and  _103
REMARK   43  A    between atoms: _103  and  _104
REMARK   44  A    between atoms: _103  and  _106
REMARK   45  A    between atoms: _106  and  _107
REMARK   46  A    between atoms: _107  and  _108
REMARK   47  A    between atoms: _108  and  _109
REMARK   48  A    between atoms: _118  and  _120
REMARK   49  A    between atoms: _120  and  _121
REMARK   50  A    between atoms: _124  and  _126
REMARK   51  A    between atoms: _126  and  _127
REMARK   52  A    between atoms: _126  and  _129
REMARK   53  A    between atoms: _129  and  _130
REMARK   54  A    between atoms: _131  and  _133
REMARK   55  A    between atoms: _133  and  _134
REMARK   56  A    between atoms: _136  and  _138
REMARK   57  A    between atoms: _138  and  _139
REMARK   58  A    between atoms: _138  and  _141
REMARK   59  A    between atoms: _144  and  _146
REMARK   60  A    between atoms: _146  and  _147
REMARK   61  A    between atoms: _150  and  _152
REMARK   62  A    between atoms: _152  and  _153
REMARK   63  A    between atoms: _152  and  _155
REMARK   64  A    between atoms: _155  and  _156
REMARK   65  A    between atoms: _159  and  _161
REMARK   66  A    between atoms: _161  and  _162
REMARK   67  A    between atoms: _164  and  _166
REMARK   68  A    between atoms: _166  and  _167
REMARK   69  A    between atoms: _171  and  _172
REMARK   70  A    between atoms: _177  and  _179
REMARK   71  A    between atoms: _179  and  _180
REMARK   72  A    between atoms: _179  and  _182
REMARK   73  A    between atoms: _182  and  _183
REMARK   74  A    between atoms: _183  and  _184
REMARK   75  A    between atoms: _184  and  _185
REMARK   76  A    between atoms: _194  and  _196
REMARK   77  A    between atoms: _196  and  _197
REMARK   78  A    between atoms: _196  and  _199
REMARK   79  A    between atoms: _199  and  _200
REMARK   80  A    between atoms: _200  and  _201
REMARK   81  A    between atoms: _201  and  _202
REMARK   82  A    between atoms: _211  and  _213
REMARK   83  A    between atoms: _213  and  _214
REMARK   84  A    between atoms: _213  and  _216
REMARK   85  A    between atoms: _216  and  _217
REMARK   86  A    between atoms: _222  and  _224
REMARK   87  A    between atoms: _224  and  _225
REMARK   88  A    between atoms: _224  and  _227
REMARK   89  A    between atoms: _227  and  _228
REMARK   90  A    between atoms: _228  and  _229
REMARK   91  A    between atoms: _232  and  _234
REMARK   92  A    between atoms: _234  and  _235
REMARK   93  A    between atoms: _234  and  _237
REMARK   94  A    between atoms: _237  and  _238
REMARK   95  A    between atoms: _238  and  _239
REMARK   96  A    between atoms: _239  and  _240
REMARK                            x       y       z     vdW  Elec       q    Type
REMARK                         _______ _______ _______ _____ _____    ______ ____
ROOT
ATOM      1  O   HOH     1     -42.219 -26.894 -37.191  0.00  0.00    +0.000 OA
ENDROOT
TORSDOF 0
REMARK  Name = ../refined-set-2016/3uil/3uil_pocket.pdb
REMARK  96 active torsions:
REMARK  status: ('A' for Active; 'I' for Inactive)
REMARK    1  A    between atoms: _1  and  _3
REMARK    2  A    between atoms: _3  and  _4
REMARK    3  A    between atoms: _3  and  _6
REMARK    4  A    between atoms: _6  and  _7
REMARK    5  A    between atoms: _7  and  _36
REMARK    6  A    between atoms: _8  and  _10
REMARK    7  A    between atoms: _10  and  _11
REMARK    8  A    between atoms: _13  and  _15
REMARK    9  A    between atoms: _15  and  _16
REMARK   10  A    between atoms: _15  and  _18
REMARK   11  A    between atoms: _18  and  _19
REMARK   12  A    between atoms: _24  and  _26
REMARK   13  A    between atoms: _26  and  _27
REMARK   14  A    between atoms: _30  and  _32
REMARK   15  A    between atoms: _32  and  _33
REMARK   16  A    between atoms: _32  and  _35
REMARK   17  A    between atoms: _35  and  _36
REMARK   18  A    between atoms: _37  and  _39
REMARK   19  A    between atoms: _39  and  _40
REMARK   20  A    between atoms: _39  and  _42
REMARK   21  A    between atoms: _45  and  _47
REMARK   22  A    between atoms: _47  and  _48
REMARK   23  A    between atoms: _51  and  _53
REMARK   24  A    between atoms: _53  and  _54
REMARK   25  A    between atoms: _53  and  _56
REMARK   26  A    between atoms: _56  and  _57
REMARK   27  A    between atoms: _60  and  _62
REMARK   28  A    between atoms: _62  and  _63
REMARK   29  A    between atoms: _62  and  _65
REMARK   30  A    between atoms: _65  and  _66
REMARK   31  A    between atoms: _70  and  _71
REMARK   32  A    between atoms: _77  and  _78
REMARK   33  A    between atoms: _83  and  _85
REMARK   34  A    between atoms: _85  and  _86
REMARK   35  A    between atoms: _89  and  _91
REMARK   36  A    between atoms: _91  and  _92
REMARK   37  A    between atoms: _91  and  _94
REMARK   38  A    between atoms: _94  and  _95
REMARK   39  A    between atoms: _95  and  _130
REMARK   40  A    between atoms: _96  and  _98
REMARK   41  A    between atoms: _98  and  _99
REMARK   42  A    between atoms: _101  and  _103
REMARK   43  A    between atoms: _103  and  _104
REMARK   44  A    between atoms: _103  and  _106
REMARK   45  A    between atoms: _106  and  _107
REMARK   46  A    between atoms: _107  and  _108
REMARK   47  A    between atoms: _108  and  _109
REMARK   48  A    between atoms: _118  and  _120
REMARK   49  A    between atoms: _120  and  _121
REMARK   50  A    between atoms: _124  and  _126
REMARK   51  A    between atoms: _126  and  _127
REMARK   52  A    between atoms: _126  and  _129
REMARK   53  A    between atoms: _129  and  _130
REMARK   54  A    between atoms: _131  and  _133
REMARK   55  A    between atoms: _133  and  _134
REMARK   56  A    between atoms: _136  and  _138
REMARK   57  A    between atoms: _138  and  _139
REMARK   58  A    between atoms: _138  and  _141
REMARK   59  A    between atoms: _144  and  _146
REMARK   60  A    between atoms: _146  and  _147
REMARK   61  A    between atoms: _150  and  _152
REMARK   62  A    between atoms: _152  and  _153
REMARK   63  A    between atoms: _152  and  _155
REMARK   64  A    between atoms: _155  and  _156
REMARK   65  A    between atoms: _159  and  _161
REMARK   66  A    between atoms: _161  and  _162
REMARK   67  A    between atoms: _164  and  _166
REMARK   68  A    between atoms: _166  and  _167
REMARK   69  A    between atoms: _171  and  _172
REMARK   70  A    between atoms: _177  and  _179
REMARK   71  A    between atoms: _179  and  _180
REMARK   72  A    between atoms: _179  and  _182
REMARK   73  A    between atoms: _182  and  _183
REMARK   74  A    between atoms: _183  and  _184
REMARK   75  A    between atoms: _184  and  _185
REMARK   76  A    between atoms: _194  and  _196
REMARK   77  A    between atoms: _196  and  _197
REMARK   78  A    between atoms: _196  and  _199
REMARK   79  A    between atoms: _199  and  _200
REMARK   80  A    between atoms: _200  and  _201
REMARK   81  A    between atoms: _201  and  _202
REMARK   82  A    between atoms: _211  and  _213
REMARK   83  A    between atoms: _213  and  _214
REMARK   84  A    between atoms: _213  and  _216
REMARK   85  A    between atoms: _216  and  _217
REMARK   86  A    between atoms: _222  and  _224
REMARK   87  A    between atoms: _224  and  _225
REMARK   88  A    between atoms: _224  and  _227
REMARK   89  A    between atoms: _227  and  _228
REMARK   90  A    between atoms: _228  and  _229
REMARK   91  A    between atoms: _232  and  _234
REMARK   92  A    between atoms: _234  and  _235
REMARK   93  A    between atoms: _234  and  _237
REMARK   94  A    between atoms: _237  and  _238
REMARK   95  A    between atoms: _238  and  _239
REMARK   96  A    between atoms: _239  and  _240
REMARK                            x       y       z     vdW  Elec       q    Type
REMARK                         _______ _______ _______ _____ _____    ______ ____
ROOT
ATOM      1  O   HOH     1     -42.822 -29.641 -37.639  0.00  0.00    +0.000 OA
ENDROOT
TORSDOF 0
REMARK  Name = ../refined-set-2016/3uil/3uil_pocket.pdb
REMARK  96 active torsions:
REMARK  status: ('A' for Active; 'I' for Inactive)
REMARK    1  A    between atoms: _1  and  _3
REMARK    2  A    between atoms: _3  and  _4
REMARK    3  A    between atoms: _3  and  _6
REMARK    4  A    between atoms: _6  and  _7
REMARK    5  A    between atoms: _7  and  _36
REMARK    6  A    between atoms: _8  and  _10
REMARK    7  A    between atoms: _10  and  _11
REMARK    8  A    between atoms: _13  and  _15
REMARK    9  A    between atoms: _15  and  _16
REMARK   10  A    between atoms: _15  and  _18
REMARK   11  A    between atoms: _18  and  _19
REMARK   12  A    between atoms: _24  and  _26
REMARK   13  A    between atoms: _26  and  _27
REMARK   14  A    between atoms: _30  and  _32
REMARK   15  A    between atoms: _32  and  _33
REMARK   16  A    between atoms: _32  and  _35
REMARK   17  A    between atoms: _35  and  _36
REMARK   18  A    between atoms: _37  and  _39
REMARK   19  A    between atoms: _39  and  _40
REMARK   20  A    between atoms: _39  and  _42
REMARK   21  A    between atoms: _45  and  _47
REMARK   22  A    between atoms: _47  and  _48
REMARK   23  A    between atoms: _51  and  _53
REMARK   24  A    between atoms: _53  and  _54
REMARK   25  A    between atoms: _53  and  _56
REMARK   26  A    between atoms: _56  and  _57
REMARK   27  A    between atoms: _60  and  _62
REMARK   28  A    between atoms: _62  and  _63
REMARK   29  A    between atoms: _62  and  _65
REMARK   30  A    between atoms: _65  and  _66
REMARK   31  A    between atoms: _70  and  _71
REMARK   32  A    between atoms: _77  and  _78
REMARK   33  A    between atoms: _83  and  _85
REMARK   34  A    between atoms: _85  and  _86
REMARK   35  A    between atoms: _89  and  _91
REMARK   36  A    between atoms: _91  and  _92
REMARK   37  A    between atoms: _91  and  _94
REMARK   38  A    between atoms: _94  and  _95
REMARK   39  A    between atoms: _95  and  _130
REMARK   40  A    between atoms: _96  and  _98
REMARK   41  A    between atoms: _98  and  _99
REMARK   42  A    between atoms: _101  and  _103
REMARK   43  A    between atoms: _103  and  _104
REMARK   44  A    between atoms: _103  and  _106
REMARK   45  A    between atoms: _106  and  _107
REMARK   46  A    between atoms: _107  and  _108
REMARK   47  A    between atoms: _108  and  _109
REMARK   48  A    between atoms: _118  and  _120
REMARK   49  A    between atoms: _120  and  _121
REMARK   50  A    between atoms: _124  and  _126
REMARK   51  A    between atoms: _126  and  _127
REMARK   52  A    between atoms: _126  and  _129
REMARK   53  A    between atoms: _129  and  _130
REMARK   54  A    between atoms: _131  and  _133
REMARK   55  A    between atoms: _133  and  _134
REMARK   56  A    between atoms: _136  and  _138
REMARK   57  A    between atoms: _138  and  _139
REMARK   58  A    between atoms: _138  and  _141
REMARK   59  A    between atoms: _144  and  _146
REMARK   60  A    between atoms: _146  and  _147
REMARK   61  A    between atoms: _150  and  _152
REMARK   62  A    between atoms: _152  and  _153
REMARK   63  A    between atoms: _152  and  _155
REMARK   64  A    between atoms: _155  and  _156
REMARK   65  A    between atoms: _159  and  _161
REMARK   66  A    between atoms: _161  and  _162
REMARK   67  A    between atoms: _164  and  _166
REMARK   68  A    between atoms: _166  and  _167
REMARK   69  A    between atoms: _171  and  _172
REMARK   70  A    between atoms: _177  and  _179
REMARK   71  A    between atoms: _179  and  _180
REMARK   72  A    between atoms: _179  and  _182
REMARK   73  A    between atoms: _182  and  _183
REMARK   74  A    between atoms: _183  and  _184
REMARK   75  A    between atoms: _184  and  _185
REMARK   76  A    between atoms: _194  and  _196
REMARK   77  A    between atoms: _196  and  _197
REMARK   78  A    between atoms: _196  and  _199
REMARK   79  A    between atoms: _199  and  _200
REMARK   80  A    between atoms: _200  and  _201
REMARK   81  A    between atoms: _201  and  _202
REMARK   82  A    between atoms: _211  and  _213
REMARK   83  A    between atoms: _213  and  _214
REMARK   84  A    between atoms: _213  and  _216
REMARK   85  A    between atoms: _216  and  _217
REMARK   86  A    between atoms: _222  and  _224
REMARK   87  A    between atoms: _224  and  _225
REMARK   88  A    between atoms: _224  and  _227
REMARK   89  A    between atoms: _227  and  _228
REMARK   90  A    between atoms: _228  and  _229
REMARK   91  A    between atoms: _232  and  _234
REMARK   92  A    between atoms: _234  and  _235
REMARK   93  A    between atoms: _234  and  _237
REMARK   94  A    between atoms: _237  and  _238
REMARK   95  A    between atoms: _238  and  _239
REMARK   96  A    between atoms: _239  and  _240
REMARK                            x       y       z     vdW  Elec       q    Type
REMARK                         _______ _______ _______ _____ _____    ______ ____
ROOT
ATOM      1  O   HOH     1     -33.460 -15.967 -43.563  0.00  0.00    +0.000 OA
ENDROOT
TORSDOF 0
REMARK  Name = ../refined-set-2016/3uil/3uil_pocket.pdb
REMARK  96 active torsions:
REMARK  status: ('A' for Active; 'I' for Inactive)
REMARK    1  A    between atoms: _1  and  _3
REMARK    2  A    between atoms: _3  and  _4
REMARK    3  A    between atoms: _3  and  _6
REMARK    4  A    between atoms: _6  and  _7
REMARK    5  A    between atoms: _7  and  _36
REMARK    6  A    between atoms: _8  and  _10
REMARK    7  A    between atoms: _10  and  _11
REMARK    8  A    between atoms: _13  and  _15
REMARK    9  A    between atoms: _15  and  _16
REMARK   10  A    between atoms: _15  and  _18
REMARK   11  A    between atoms: _18  and  _19
REMARK   12  A    between atoms: _24  and  _26
REMARK   13  A    between atoms: _26  and  _27
REMARK   14  A    between atoms: _30  and  _32
REMARK   15  A    between atoms: _32  and  _33
REMARK   16  A    between atoms: _32  and  _35
REMARK   17  A    between atoms: _35  and  _36
REMARK   18  A    between atoms: _37  and  _39
REMARK   19  A    between atoms: _39  and  _40
REMARK   20  A    between atoms: _39  and  _42
REMARK   21  A    between atoms: _45  and  _47
REMARK   22  A    between atoms: _47  and  _48
REMARK   23  A    between atoms: _51  and  _53
REMARK   24  A    between atoms: _53  and  _54
REMARK   25  A    between atoms: _53  and  _56
REMARK   26  A    between atoms: _56  and  _57
REMARK   27  A    between atoms: _60  and  _62
REMARK   28  A    between atoms: _62  and  _63
REMARK   29  A    between atoms: _62  and  _65
REMARK   30  A    between atoms: _65  and  _66
REMARK   31  A    between atoms: _70  and  _71
REMARK   32  A    between atoms: _77  and  _78
REMARK   33  A    between atoms: _83  and  _85
REMARK   34  A    between atoms: _85  and  _86
REMARK   35  A    between atoms: _89  and  _91
REMARK   36  A    between atoms: _91  and  _92
REMARK   37  A    between atoms: _91  and  _94
REMARK   38  A    between atoms: _94  and  _95
REMARK   39  A    between atoms: _95  and  _130
REMARK   40  A    between atoms: _96  and  _98
REMARK   41  A    between atoms: _98  and  _99
REMARK   42  A    between atoms: _101  and  _103
REMARK   43  A    between atoms: _103  and  _104
REMARK   44  A    between atoms: _103  and  _106
REMARK   45  A    between atoms: _106  and  _107
REMARK   46  A    between atoms: _107  and  _108
REMARK   47  A    between atoms: _108  and  _109
REMARK   48  A    between atoms: _118  and  _120
REMARK   49  A    between atoms: _120  and  _121
REMARK   50  A    between atoms: _124  and  _126
REMARK   51  A    between atoms: _126  and  _127
REMARK   52  A    between atoms: _126  and  _129
REMARK   53  A    between atoms: _129  and  _130
REMARK   54  A    between atoms: _131  and  _133
REMARK   55  A    between atoms: _133  and  _134
REMARK   56  A    between atoms: _136  and  _138
REMARK   57  A    between atoms: _138  and  _139
REMARK   58  A    between atoms: _138  and  _141
REMARK   59  A    between atoms: _144  and  _146
REMARK   60  A    between atoms: _146  and  _147
REMARK   61  A    between atoms: _150  and  _152
REMARK   62  A    between atoms: _152  and  _153
REMARK   63  A    between atoms: _152  and  _155
REMARK   64  A    between atoms: _155  and  _156
REMARK   65  A    between atoms: _159  and  _161
REMARK   66  A    between atoms: _161  and  _162
REMARK   67  A    between atoms: _164  and  _166
REMARK   68  A    between atoms: _166  and  _167
REMARK   69  A    between atoms: _171  and  _172
REMARK   70  A    between atoms: _177  and  _179
REMARK   71  A    between atoms: _179  and  _180
REMARK   72  A    between atoms: _179  and  _182
REMARK   73  A    between atoms: _182  and  _183
REMARK   74  A    between atoms: _183  and  _184
REMARK   75  A    between atoms: _184  and  _185
REMARK   76  A    between atoms: _194  and  _196
REMARK   77  A    between atoms: _196  and  _197
REMARK   78  A    between atoms: _196  and  _199
REMARK   79  A    between atoms: _199  and  _200
REMARK   80  A    between atoms: _200  and  _201
REMARK   81  A    between atoms: _201  and  _202
REMARK   82  A    between atoms: _211  and  _213
REMARK   83  A    between atoms: _213  and  _214
REMARK   84  A    between atoms: _213  and  _216
REMARK   85  A    between atoms: _216  and  _217
REMARK   86  A    between atoms: _222  and  _224
REMARK   87  A    between atoms: _224  and  _225
REMARK   88  A    between atoms: _224  and  _227
REMARK   89  A    between atoms: _227  and  _228
REMARK   90  A    between atoms: _228  and  _229
REMARK   91  A    between atoms: _232  and  _234
REMARK   92  A    between atoms: _234  and  _235
REMARK   93  A    between atoms: _234  and  _237
REMARK   94  A    between atoms: _237  and  _238
REMARK   95  A    between atoms: _238  and  _239
REMARK   96  A    between atoms: _239  and  _240
REMARK                            x       y       z     vdW  Elec       q    Type
REMARK                         _______ _______ _______ _____ _____    ______ ____
ROOT
ATOM      1  O   HOH     1     -38.981 -23.596 -34.390  0.00  0.00    +0.000 OA
ENDROOT
TORSDOF 0
