REMARK  Name = ../refined-set-2016/4ql1/4ql1_pocket.pdb
REMARK  213 active torsions:
REMARK  status: ('A' for Active; 'I' for Inactive)
REMARK    1  A    between atoms: _1  and  _3
REMARK    2  A    between atoms: _3  and  _4
REMARK    3  A    between atoms: _3  and  _6
REMARK    4  A    between atoms: _6  and  _7
REMARK    5  A    between atoms: _7  and  _8
REMARK    6  A    between atoms: _8  and  _9
REMARK    7  A    between atoms: _9  and  _10
REMARK    8  A    between atoms: _14  and  _16
REMARK    9  A    between atoms: _16  and  _17
REMARK   10  A    between atoms: _20  and  _22
REMARK   11  A    between atoms: _22  and  _23
REMARK   12  A    between atoms: _22  and  _25
REMARK   13  A    between atoms: _28  and  _30
REMARK   14  A    between atoms: _30  and  _31
REMARK   15  A    between atoms: _30  and  _33
REMARK   16  A    between atoms: _33  and  _34
REMARK   17  A    between atoms: _36  and  _38
REMARK   18  A    between atoms: _38  and  _39
REMARK   19  A    between atoms: _38  and  _41
REMARK   20  A    between atoms: _41  and  _42
REMARK   21  A    between atoms: _44  and  _46
REMARK   22  A    between atoms: _46  and  _47
REMARK   23  A    between atoms: _46  and  _49
REMARK   24  A    between atoms: _52  and  _54
REMARK   25  A    between atoms: _54  and  _55
REMARK   26  A    between atoms: _54  and  _57
REMARK   27  A    between atoms: _57  and  _58
REMARK   28  A    between atoms: _58  and  _59
REMARK   29  A    between atoms: _59  and  _60
REMARK   30  A    between atoms: _60  and  _61
REMARK   31  A    between atoms: _65  and  _67
REMARK   32  A    between atoms: _67  and  _68
REMARK   33  A    between atoms: _67  and  _70
REMARK   34  A    between atoms: _70  and  _71
REMARK   35  A    between atoms: _73  and  _75
REMARK   36  A    between atoms: _75  and  _76
REMARK   37  A    between atoms: _75  and  _78
REMARK   38  A    between atoms: _78  and  _79
REMARK   39  A    between atoms: _81  and  _83
REMARK   40  A    between atoms: _83  and  _84
REMARK   41  A    between atoms: _87  and  _89
REMARK   42  A    between atoms: _89  and  _90
REMARK   43  A    between atoms: _89  and  _92
REMARK   44  A    between atoms: _92  and  _93
REMARK   45  A    between atoms: _96  and  _98
REMARK   46  A    between atoms: _98  and  _99
REMARK   47  A    between atoms: _98  and  _101
REMARK   48  A    between atoms: _101  and  _102
REMARK   49  A    between atoms: _102  and  _103
REMARK   50  A    between atoms: _103  and  _104
REMARK   51  A    between atoms: _104  and  _105
REMARK   52  A    between atoms: _109  and  _111
REMARK   53  A    between atoms: _111  and  _112
REMARK   54  A    between atoms: _111  and  _114
REMARK   55  A    between atoms: _114  and  _115
REMARK   56  A    between atoms: _118  and  _120
REMARK   57  A    between atoms: _120  and  _121
REMARK   58  A    between atoms: _120  and  _123
REMARK   59  A    between atoms: _123  and  _124
REMARK   60  A    between atoms: _127  and  _129
REMARK   61  A    between atoms: _129  and  _130
REMARK   62  A    between atoms: _132  and  _134
REMARK   63  A    between atoms: _134  and  _135
REMARK   64  A    between atoms: _134  and  _137
REMARK   65  A    between atoms: _137  and  _138
REMARK   66  A    between atoms: _141  and  _143
REMARK   67  A    between atoms: _143  and  _144
REMARK   68  A    between atoms: _143  and  _146
REMARK   69  A    between atoms: _146  and  _147
REMARK   70  A    between atoms: _149  and  _151
REMARK   71  A    between atoms: _151  and  _152
REMARK   72  A    between atoms: _151  and  _154
REMARK   73  A    between atoms: _154  and  _155
REMARK   74  A    between atoms: _158  and  _160
REMARK   75  A    between atoms: _160  and  _161
REMARK   76  A    between atoms: _160  and  _163
REMARK   77  A    between atoms: _166  and  _168
REMARK   78  A    between atoms: _168  and  _169
REMARK   79  A    between atoms: _172  and  _174
REMARK   80  A    between atoms: _174  and  _175
REMARK   81  A    between atoms: _174  and  _177
REMARK   82  A    between atoms: _177  and  _178
REMARK   83  A    between atoms: _180  and  _182
REMARK   84  A    between atoms: _182  and  _183
REMARK   85  A    between atoms: _182  and  _185
REMARK   86  A    between atoms: _185  and  _186
REMARK   87  A    between atoms: _189  and  _191
REMARK   88  A    between atoms: _191  and  _192
REMARK   89  A    between atoms: _191  and  _194
REMARK   90  A    between atoms: _194  and  _195
REMARK   91  A    between atoms: _198  and  _200
REMARK   92  A    between atoms: _200  and  _201
REMARK   93  A    between atoms: _200  and  _203
REMARK   94  A    between atoms: _203  and  _204
REMARK   95  A    between atoms: _209  and  _210
REMARK   96  A    between atoms: _212  and  _214
REMARK   97  A    between atoms: _214  and  _215
REMARK   98  A    between atoms: _214  and  _217
REMARK   99  A    between atoms: _220  and  _222
REMARK  100  A    between atoms: _222  and  _223
REMARK  101  A    between atoms: _222  and  _225
REMARK  102  A    between atoms: _225  and  _226
REMARK  103  A    between atoms: _232  and  _234
REMARK  104  A    between atoms: _234  and  _235
REMARK  105  A    between atoms: _234  and  _237
REMARK  106  A    between atoms: _239  and  _241
REMARK  107  A    between atoms: _241  and  _242
REMARK  108  A    between atoms: _241  and  _244
REMARK  109  A    between atoms: _246  and  _248
REMARK  110  A    between atoms: _248  and  _249
REMARK  111  A    between atoms: _251  and  _253
REMARK  112  A    between atoms: _253  and  _254
REMARK  113  A    between atoms: _253  and  _256
REMARK  114  A    between atoms: _256  and  _257
REMARK  115  A    between atoms: _259  and  _261
REMARK  116  A    between atoms: _261  and  _262
REMARK  117  A    between atoms: _261  and  _264
REMARK  118  A    between atoms: _264  and  _265
REMARK  119  A    between atoms: _271  and  _273
REMARK  120  A    between atoms: _273  and  _274
REMARK  121  A    between atoms: _273  and  _276
REMARK  122  A    between atoms: _276  and  _277
REMARK  123  A    between atoms: _281  and  _282
REMARK  124  A    between atoms: _287  and  _289
REMARK  125  A    between atoms: _289  and  _290
REMARK  126  A    between atoms: _289  and  _292
REMARK  127  A    between atoms: _295  and  _297
REMARK  128  A    between atoms: _297  and  _298
REMARK  129  A    between atoms: _297  and  _300
REMARK  130  A    between atoms: _300  and  _301
REMARK  131  A    between atoms: _303  and  _305
REMARK  132  A    between atoms: _305  and  _306
REMARK  133  A    between atoms: _309  and  _311
REMARK  134  A    between atoms: _311  and  _312
REMARK  135  A    between atoms: _311  and  _314
REMARK  136  A    between atoms: _317  and  _319
REMARK  137  A    between atoms: _319  and  _320
REMARK  138  A    between atoms: _319  and  _322
REMARK  139  A    between atoms: _322  and  _323
REMARK  140  A    between atoms: _325  and  _327
REMARK  141  A    between atoms: _327  and  _328
REMARK  142  A    between atoms: _327  and  _330
REMARK  143  A    between atoms: _330  and  _331
REMARK  144  A    between atoms: _333  and  _335
REMARK  145  A    between atoms: _335  and  _336
REMARK  146  A    between atoms: _335  and  _338
REMARK  147  A    between atoms: _338  and  _339
REMARK  148  A    between atoms: _344  and  _345
REMARK  149  A    between atoms: _348  and  _349
REMARK  150  A    between atoms: _354  and  _356
REMARK  151  A    between atoms: _356  and  _357
REMARK  152  A    between atoms: _356  and  _359
REMARK  153  A    between atoms: _362  and  _364
REMARK  154  A    between atoms: _364  and  _365
REMARK  155  A    between atoms: _364  and  _367
REMARK  156  A    between atoms: _367  and  _368
REMARK  157  A    between atoms: _370  and  _372
REMARK  158  A    between atoms: _372  and  _373
REMARK  159  A    between atoms: _372  and  _375
REMARK  160  A    between atoms: _375  and  _376
REMARK  161  A    between atoms: _382  and  _384
REMARK  162  A    between atoms: _384  and  _385
REMARK  163  A    between atoms: _384  and  _387
REMARK  164  A    between atoms: _387  and  _388
REMARK  165  A    between atoms: _391  and  _393
REMARK  166  A    between atoms: _393  and  _394
REMARK  167  A    between atoms: _393  and  _396
REMARK  168  A    between atoms: _396  and  _397
REMARK  169  A    between atoms: _397  and  _398
REMARK  170  A    between atoms: _398  and  _399
REMARK  171  A    between atoms: _399  and  _400
REMARK  172  A    between atoms: _404  and  _406
REMARK  173  A    between atoms: _406  and  _407
REMARK  174  A    between atoms: _406  and  _409
REMARK  175  A    between atoms: _409  and  _410
REMARK  176  A    between atoms: _415  and  _416
REMARK  177  A    between atoms: _418  and  _420
REMARK  178  A    between atoms: _420  and  _421
REMARK  179  A    between atoms: _420  and  _423
REMARK  180  A    between atoms: _425  and  _427
REMARK  181  A    between atoms: _427  and  _428
REMARK  182  A    between atoms: _427  and  _430
REMARK  183  A    between atoms: _430  and  _431
REMARK  184  A    between atoms: _434  and  _436
REMARK  185  A    between atoms: _436  and  _437
REMARK  186  A    between atoms: _436  and  _439
REMARK  187  A    between atoms: _439  and  _440
REMARK  188  A    between atoms: _446  and  _448
REMARK  189  A    between atoms: _448  and  _449
REMARK  190  A    between atoms: _448  and  _451
REMARK  191  A    between atoms: _454  and  _456
REMARK  192  A    between atoms: _456  and  _457
REMARK  193  A    between atoms: _456  and  _459
REMARK  194  A    between atoms: _459  and  _460
REMARK  195  A    between atoms: _463  and  _465
REMARK  196  A    between atoms: _465  and  _466
REMARK  197  A    between atoms: _465  and  _468
REMARK  198  A    between atoms: _468  and  _469
REMARK  199  A    between atoms: _471  and  _473
REMARK  200  A    between atoms: _473  and  _474
REMARK  201  A    between atoms: _473  and  _476
REMARK  202  A    between atoms: _476  and  _477
REMARK  203  A    between atoms: _480  and  _482
REMARK  204  A    between atoms: _482  and  _483
REMARK  205  A    between atoms: _486  and  _488
REMARK  206  A    between atoms: _488  and  _489
REMARK  207  A    between atoms: _488  and  _491
REMARK  208  A    between atoms: _491  and  _492
REMARK  209  A    between atoms: _495  and  _497
REMARK  210  A    between atoms: _497  and  _498
REMARK  211  A    between atoms: _497  and  _500
REMARK  212  A    between atoms: _500  and  _501
REMARK  213  A    between atoms: _501  and  _502
REMARK                            x       y       z     vdW  Elec       q    Type
REMARK                         _______ _______ _______ _____ _____    ______ ____
ROOT
ATOM      1  CA  SER A   4      -6.398 -25.406   7.060  0.00  0.00    +0.178 C 
ENDROOT
BRANCH   1   3
ATOM      2  C   VAL A   3      -4.014 -24.923   7.220  0.00  0.00    +0.241 C 
ATOM      3  N   SER A   4      -5.049 -25.675   7.543  0.00  0.00    -0.295 N 
ATOM      4  H   SER A   4      -4.896 -26.493   8.167  0.00  0.00    +0.150 HD
ATOM      5  O   VAL A   3      -4.140 -23.817   6.667  0.00  0.00    -0.273 OA
BRANCH   2   6
ATOM      6  CA  VAL A   3      -2.631 -25.422   7.654  0.00  0.00    +0.149 C 
BRANCH   6   8
ATOM      7  C   ALA A   2      -1.670 -26.510   5.730  0.00  0.00    +0.241 C 
ATOM      8  N   VAL A   3      -1.791 -25.432   6.489  0.00  0.00    -0.297 N 
ATOM      9  H   VAL A   3      -1.265 -24.571   6.235  0.00  0.00    +0.150 HD
ATOM     10  O   ALA A   2      -2.169 -27.612   6.022  0.00  0.00    -0.273 OA
BRANCH   7  11
ATOM     11  CA  ALA A   2      -0.878 -26.337   4.425  0.00  0.00    +0.149 C 
ATOM     12  CB  ALA A   2      -1.847 -26.103   3.292  0.00  0.00    +0.031 C 
BRANCH  11  15
ATOM     13  C   LYS A   1       0.783 -28.021   5.059  0.00  0.00    +0.238 C 
ATOM     14  O   LYS A   1       0.894 -27.558   6.205  0.00  0.00    -0.274 OA
ATOM     15  N   ALA A   2      -0.033 -27.503   4.139  0.00  0.00    -0.297 N 
ATOM     16  H   ALA A   2      -0.071 -27.937   3.195  0.00  0.00    +0.150 HD
BRANCH  13  17
ATOM     17  CA  LYS A   1       1.595 -29.250   4.641  0.00  0.00    +0.145 C 
BRANCH  17  18
ATOM     18  N   LYS A   1       2.304 -29.765   5.805  0.00  0.00    -0.238 NA
ATOM     19  H   LYS A   1       1.789 -29.852   6.705  0.00  0.00    +0.142 HD
ENDBRANCH  17  18
BRANCH  17  20
ATOM     20  CB  LYS A   1       0.661 -30.323   4.091  0.00  0.00    +0.026 C 
BRANCH  20  21
ATOM     21  CG  LYS A   1       1.381 -31.542   3.539  0.00  0.00    -0.000 C 
BRANCH  21  22
ATOM     22  CD  LYS A   1       0.496 -32.266   2.539  0.00  0.00    -0.024 C 
BRANCH  22  23
ATOM     23  CE  LYS A   1       1.216 -33.389   1.830  0.00  0.00    -0.086 C 
BRANCH  23  24
ATOM     24  NZ  LYS A   1       0.245 -34.170   1.034  0.00  0.00    +0.380 N 
ATOM     25  HZ1 LYS A   1      -0.480 -34.566   1.665  0.00  0.00    -0.089 HD
ATOM     26  HZ2 LYS A   1       0.741 -34.943   0.546  0.00  0.00    -0.089 HD
ATOM     27  HZ3 LYS A   1      -0.206 -33.548   0.333  0.00  0.00    -0.089 HD
ENDBRANCH  23  24
ENDBRANCH  22  23
ENDBRANCH  21  22
ENDBRANCH  20  21
ENDBRANCH  17  20
ENDBRANCH  13  17
ENDBRANCH  11  15
ENDBRANCH   7  11
ENDBRANCH   6   8
BRANCH   6  28
ATOM     28  CB  VAL A   3      -2.053 -24.556   8.806  0.00  0.00    +0.027 C 
ATOM     29  CG2 VAL A   3      -2.894 -24.730  10.034  0.00  0.00    +0.002 C 
ATOM     30  CG1 VAL A   3      -0.598 -24.885   9.110  0.00  0.00    +0.002 C 
ENDBRANCH   6  28
ENDBRANCH   2   6
ENDBRANCH   1   3
BRANCH   1  31
ATOM     31  C   SER A   4      -7.323 -24.639   8.002  0.00  0.00    +0.243 C 
ATOM     32  N   SER A   5      -7.147 -24.817   9.310  0.00  0.00    -0.295 N 
ATOM     33  H   SER A   5      -6.341 -25.383   9.644  0.00  0.00    +0.150 HD
ATOM     34  O   SER A   4      -8.217 -23.948   7.528  0.00  0.00    -0.273 OA
BRANCH  32  35
ATOM     35  CA  SER A   5      -8.062 -24.234  10.281  0.00  0.00    +0.178 C 
BRANCH  35  36
ATOM     36  C   SER A   5      -7.344 -24.090  11.598  0.00  0.00    +0.243 C 
ATOM     37  N   VAL A   6      -7.638 -22.996  12.280  0.00  0.00    -0.297 N 
ATOM     38  H   VAL A   6      -8.188 -22.250  11.807  0.00  0.00    +0.150 HD
ATOM     39  O   SER A   5      -6.555 -24.968  11.999  0.00  0.00    -0.273 OA
BRANCH  37  40
ATOM     40  CA  VAL A   6      -7.224 -22.784  13.677  0.00  0.00    +0.149 C 
BRANCH  40  41
ATOM     41  C   VAL A   6      -8.456 -22.392  14.496  0.00  0.00    +0.241 C 
ATOM     42  N   LYS A   7      -8.575 -22.945  15.702  0.00  0.00    -0.298 N 
ATOM     43  H   LYS A   7      -7.839 -23.605  16.024  0.00  0.00    +0.150 HD
ATOM     44  O   VAL A   6      -9.276 -21.612  14.049  0.00  0.00    -0.273 OA
BRANCH  42  45
ATOM     45  CA  LYS A   7      -9.702 -22.660  16.593  0.00  0.00    +0.137 C 
BRANCH  45  46
ATOM     46  C   LYS A   7      -9.239 -22.601  18.041  0.00  0.00    +0.227 C 
ATOM     47  O   LYS A   7      -8.607 -23.538  18.493  0.00  0.00    -0.286 OA
ENDBRANCH  45  46
BRANCH  45  48
ATOM     48  CB  LYS A   7     -10.744 -23.778  16.497  0.00  0.00    +0.028 C 
BRANCH  48  49
ATOM     49  CG  LYS A   7     -11.383 -23.982  15.131  0.00  0.00    -0.000 C 
BRANCH  49  50
ATOM     50  CD  LYS A   7     -12.373 -22.896  14.704  0.00  0.00    -0.024 C 
BRANCH  50  51
ATOM     51  CE  LYS A   7     -12.809 -23.086  13.247  0.00  0.00    -0.086 C 
BRANCH  51  52
ATOM     52  NZ  LYS A   7     -13.816 -24.178  13.106  0.00  0.00    +0.380 N 
ATOM     53  HZ1 LYS A   7     -14.658 -23.947  13.671  0.00  0.00    -0.089 HD
ATOM     54  HZ2 LYS A   7     -13.406 -25.072  13.443  0.00  0.00    -0.089 HD
ATOM     55  HZ3 LYS A   7     -14.084 -24.274  12.106  0.00  0.00    -0.089 HD
ENDBRANCH  51  52
ENDBRANCH  50  51
ENDBRANCH  49  50
ENDBRANCH  48  49
ENDBRANCH  45  48
ENDBRANCH  42  45
ENDBRANCH  40  41
BRANCH  40  56
ATOM     56  CB  VAL A   6      -6.101 -21.748  13.852  0.00  0.00    +0.027 C 
ATOM     57  CG2 VAL A   6      -4.757 -22.329  13.444  0.00  0.00    +0.002 C 
ATOM     58  CG1 VAL A   6      -6.373 -20.451  13.113  0.00  0.00    +0.002 C 
ENDBRANCH  40  56
ENDBRANCH  37  40
ENDBRANCH  35  36
BRANCH  35  59
ATOM     59  CB  SER A   5      -9.261 -25.145  10.438  0.00  0.00    +0.166 C 
BRANCH  59  60
ATOM     60  OG  SER A   5     -10.349 -24.433  10.998  0.00  0.00    -0.380 OA
ATOM     61  H   SER A   5     -10.590 -23.680  10.403  0.00  0.00    +0.211 HD
ENDBRANCH  59  60
ENDBRANCH  35  59
ENDBRANCH  32  35
ENDBRANCH   1  31
BRANCH   1  62
ATOM     62  CB  SER A   4      -7.074 -26.714   6.672  0.00  0.00    +0.166 C 
BRANCH  62  63
ATOM     63  OG  SER A   4      -7.031 -27.659   7.720  0.00  0.00    -0.380 OA
ATOM     64  H   SER A   4      -7.479 -28.493   7.430  0.00  0.00    +0.211 HD
ENDBRANCH  62  63
ENDBRANCH   1  62
TORSDOF 30
REMARK  Name = ../refined-set-2016/4ql1/4ql1_pocket.pdb
REMARK  213 active torsions:
REMARK  status: ('A' for Active; 'I' for Inactive)
REMARK    1  A    between atoms: _1  and  _3
REMARK    2  A    between atoms: _3  and  _4
REMARK    3  A    between atoms: _3  and  _6
REMARK    4  A    between atoms: _6  and  _7
REMARK    5  A    between atoms: _7  and  _8
REMARK    6  A    between atoms: _8  and  _9
REMARK    7  A    between atoms: _9  and  _10
REMARK    8  A    between atoms: _14  and  _16
REMARK    9  A    between atoms: _16  and  _17
REMARK   10  A    between atoms: _20  and  _22
REMARK   11  A    between atoms: _22  and  _23
REMARK   12  A    between atoms: _22  and  _25
REMARK   13  A    between atoms: _28  and  _30
REMARK   14  A    between atoms: _30  and  _31
REMARK   15  A    between atoms: _30  and  _33
REMARK   16  A    between atoms: _33  and  _34
REMARK   17  A    between atoms: _36  and  _38
REMARK   18  A    between atoms: _38  and  _39
REMARK   19  A    between atoms: _38  and  _41
REMARK   20  A    between atoms: _41  and  _42
REMARK   21  A    between atoms: _44  and  _46
REMARK   22  A    between atoms: _46  and  _47
REMARK   23  A    between atoms: _46  and  _49
REMARK   24  A    between atoms: _52  and  _54
REMARK   25  A    between atoms: _54  and  _55
REMARK   26  A    between atoms: _54  and  _57
REMARK   27  A    between atoms: _57  and  _58
REMARK   28  A    between atoms: _58  and  _59
REMARK   29  A    between atoms: _59  and  _60
REMARK   30  A    between atoms: _60  and  _61
REMARK   31  A    between atoms: _65  and  _67
REMARK   32  A    between atoms: _67  and  _68
REMARK   33  A    between atoms: _67  and  _70
REMARK   34  A    between atoms: _70  and  _71
REMARK   35  A    between atoms: _73  and  _75
REMARK   36  A    between atoms: _75  and  _76
REMARK   37  A    between atoms: _75  and  _78
REMARK   38  A    between atoms: _78  and  _79
REMARK   39  A    between atoms: _81  and  _83
REMARK   40  A    between atoms: _83  and  _84
REMARK   41  A    between atoms: _87  and  _89
REMARK   42  A    between atoms: _89  and  _90
REMARK   43  A    between atoms: _89  and  _92
REMARK   44  A    between atoms: _92  and  _93
REMARK   45  A    between atoms: _96  and  _98
REMARK   46  A    between atoms: _98  and  _99
REMARK   47  A    between atoms: _98  and  _101
REMARK   48  A    between atoms: _101  and  _102
REMARK   49  A    between atoms: _102  and  _103
REMARK   50  A    between atoms: _103  and  _104
REMARK   51  A    between atoms: _104  and  _105
REMARK   52  A    between atoms: _109  and  _111
REMARK   53  A    between atoms: _111  and  _112
REMARK   54  A    between atoms: _111  and  _114
REMARK   55  A    between atoms: _114  and  _115
REMARK   56  A    between atoms: _118  and  _120
REMARK   57  A    between atoms: _120  and  _121
REMARK   58  A    between atoms: _120  and  _123
REMARK   59  A    between atoms: _123  and  _124
REMARK   60  A    between atoms: _127  and  _129
REMARK   61  A    between atoms: _129  and  _130
REMARK   62  A    between atoms: _132  and  _134
REMARK   63  A    between atoms: _134  and  _135
REMARK   64  A    between atoms: _134  and  _137
REMARK   65  A    between atoms: _137  and  _138
REMARK   66  A    between atoms: _141  and  _143
REMARK   67  A    between atoms: _143  and  _144
REMARK   68  A    between atoms: _143  and  _146
REMARK   69  A    between atoms: _146  and  _147
REMARK   70  A    between atoms: _149  and  _151
REMARK   71  A    between atoms: _151  and  _152
REMARK   72  A    between atoms: _151  and  _154
REMARK   73  A    between atoms: _154  and  _155
REMARK   74  A    between atoms: _158  and  _160
REMARK   75  A    between atoms: _160  and  _161
REMARK   76  A    between atoms: _160  and  _163
REMARK   77  A    between atoms: _166  and  _168
REMARK   78  A    between atoms: _168  and  _169
REMARK   79  A    between atoms: _172  and  _174
REMARK   80  A    between atoms: _174  and  _175
REMARK   81  A    between atoms: _174  and  _177
REMARK   82  A    between atoms: _177  and  _178
REMARK   83  A    between atoms: _180  and  _182
REMARK   84  A    between atoms: _182  and  _183
REMARK   85  A    between atoms: _182  and  _185
REMARK   86  A    between atoms: _185  and  _186
REMARK   87  A    between atoms: _189  and  _191
REMARK   88  A    between atoms: _191  and  _192
REMARK   89  A    between atoms: _191  and  _194
REMARK   90  A    between atoms: _194  and  _195
REMARK   91  A    between atoms: _198  and  _200
REMARK   92  A    between atoms: _200  and  _201
REMARK   93  A    between atoms: _200  and  _203
REMARK   94  A    between atoms: _203  and  _204
REMARK   95  A    between atoms: _209  and  _210
REMARK   96  A    between atoms: _212  and  _214
REMARK   97  A    between atoms: _214  and  _215
REMARK   98  A    between atoms: _214  and  _217
REMARK   99  A    between atoms: _220  and  _222
REMARK  100  A    between atoms: _222  and  _223
REMARK  101  A    between atoms: _222  and  _225
REMARK  102  A    between atoms: _225  and  _226
REMARK  103  A    between atoms: _232  and  _234
REMARK  104  A    between atoms: _234  and  _235
REMARK  105  A    between atoms: _234  and  _237
REMARK  106  A    between atoms: _239  and  _241
REMARK  107  A    between atoms: _241  and  _242
REMARK  108  A    between atoms: _241  and  _244
REMARK  109  A    between atoms: _246  and  _248
REMARK  110  A    between atoms: _248  and  _249
REMARK  111  A    between atoms: _251  and  _253
REMARK  112  A    between atoms: _253  and  _254
REMARK  113  A    between atoms: _253  and  _256
REMARK  114  A    between atoms: _256  and  _257
REMARK  115  A    between atoms: _259  and  _261
REMARK  116  A    between atoms: _261  and  _262
REMARK  117  A    between atoms: _261  and  _264
REMARK  118  A    between atoms: _264  and  _265
REMARK  119  A    between atoms: _271  and  _273
REMARK  120  A    between atoms: _273  and  _274
REMARK  121  A    between atoms: _273  and  _276
REMARK  122  A    between atoms: _276  and  _277
REMARK  123  A    between atoms: _281  and  _282
REMARK  124  A    between atoms: _287  and  _289
REMARK  125  A    between atoms: _289  and  _290
REMARK  126  A    between atoms: _289  and  _292
REMARK  127  A    between atoms: _295  and  _297
REMARK  128  A    between atoms: _297  and  _298
REMARK  129  A    between atoms: _297  and  _300
REMARK  130  A    between atoms: _300  and  _301
REMARK  131  A    between atoms: _303  and  _305
REMARK  132  A    between atoms: _305  and  _306
REMARK  133  A    between atoms: _309  and  _311
REMARK  134  A    between atoms: _311  and  _312
REMARK  135  A    between atoms: _311  and  _314
REMARK  136  A    between atoms: _317  and  _319
REMARK  137  A    between atoms: _319  and  _320
REMARK  138  A    between atoms: _319  and  _322
REMARK  139  A    between atoms: _322  and  _323
REMARK  140  A    between atoms: _325  and  _327
REMARK  141  A    between atoms: _327  and  _328
REMARK  142  A    between atoms: _327  and  _330
REMARK  143  A    between atoms: _330  and  _331
REMARK  144  A    between atoms: _333  and  _335
REMARK  145  A    between atoms: _335  and  _336
REMARK  146  A    between atoms: _335  and  _338
REMARK  147  A    between atoms: _338  and  _339
REMARK  148  A    between atoms: _344  and  _345
REMARK  149  A    between atoms: _348  and  _349
REMARK  150  A    between atoms: _354  and  _356
REMARK  151  A    between atoms: _356  and  _357
REMARK  152  A    between atoms: _356  and  _359
REMARK  153  A    between atoms: _362  and  _364
REMARK  154  A    between atoms: _364  and  _365
REMARK  155  A    between atoms: _364  and  _367
REMARK  156  A    between atoms: _367  and  _368
REMARK  157  A    between atoms: _370  and  _372
REMARK  158  A    between atoms: _372  and  _373
REMARK  159  A    between atoms: _372  and  _375
REMARK  160  A    between atoms: _375  and  _376
REMARK  161  A    between atoms: _382  and  _384
REMARK  162  A    between atoms: _384  and  _385
REMARK  163  A    between atoms: _384  and  _387
REMARK  164  A    between atoms: _387  and  _388
REMARK  165  A    between atoms: _391  and  _393
REMARK  166  A    between atoms: _393  and  _394
REMARK  167  A    between atoms: _393  and  _396
REMARK  168  A    between atoms: _396  and  _397
REMARK  169  A    between atoms: _397  and  _398
REMARK  170  A    between atoms: _398  and  _399
REMARK  171  A    between atoms: _399  and  _400
REMARK  172  A    between atoms: _404  and  _406
REMARK  173  A    between atoms: _406  and  _407
REMARK  174  A    between atoms: _406  and  _409
REMARK  175  A    between atoms: _409  and  _410
REMARK  176  A    between atoms: _415  and  _416
REMARK  177  A    between atoms: _418  and  _420
REMARK  178  A    between atoms: _420  and  _421
REMARK  179  A    between atoms: _420  and  _423
REMARK  180  A    between atoms: _425  and  _427
REMARK  181  A    between atoms: _427  and  _428
REMARK  182  A    between atoms: _427  and  _430
REMARK  183  A    between atoms: _430  and  _431
REMARK  184  A    between atoms: _434  and  _436
REMARK  185  A    between atoms: _436  and  _437
REMARK  186  A    between atoms: _436  and  _439
REMARK  187  A    between atoms: _439  and  _440
REMARK  188  A    between atoms: _446  and  _448
REMARK  189  A    between atoms: _448  and  _449
REMARK  190  A    between atoms: _448  and  _451
REMARK  191  A    between atoms: _454  and  _456
REMARK  192  A    between atoms: _456  and  _457
REMARK  193  A    between atoms: _456  and  _459
REMARK  194  A    between atoms: _459  and  _460
REMARK  195  A    between atoms: _463  and  _465
REMARK  196  A    between atoms: _465  and  _466
REMARK  197  A    between atoms: _465  and  _468
REMARK  198  A    between atoms: _468  and  _469
REMARK  199  A    between atoms: _471  and  _473
REMARK  200  A    between atoms: _473  and  _474
REMARK  201  A    between atoms: _473  and  _476
REMARK  202  A    between atoms: _476  and  _477
REMARK  203  A    between atoms: _480  and  _482
REMARK  204  A    between atoms: _482  and  _483
REMARK  205  A    between atoms: _486  and  _488
REMARK  206  A    between atoms: _488  and  _489
REMARK  207  A    between atoms: _488  and  _491
REMARK  208  A    between atoms: _491  and  _492
REMARK  209  A    between atoms: _495  and  _497
REMARK  210  A    between atoms: _497  and  _498
REMARK  211  A    between atoms: _497  and  _500
REMARK  212  A    between atoms: _500  and  _501
REMARK  213  A    between atoms: _501  and  _502
REMARK                            x       y       z     vdW  Elec       q    Type
REMARK                         _______ _______ _______ _____ _____    ______ ____
ROOT
ATOM      1  CA  ASP A   4      -0.827 -33.289   6.550  0.00  0.00    +0.160 C 
ENDROOT
BRANCH   1   2
ATOM      2  C   ASP A   4      -1.512 -34.383   7.360  0.00  0.00    +0.241 C 
ATOM      3  O   ASP A   4      -0.840 -35.256   7.865  0.00  0.00    -0.273 OA
ATOM      4  N   LYS A   5      -2.849 -34.333   7.470  0.00  0.00    -0.297 N 
ATOM      5  H   LYS A   5      -3.339 -33.513   7.058  0.00  0.00    +0.150 HD
BRANCH   4   6
ATOM      6  CA  LYS A   5      -3.666 -35.356   8.132  0.00  0.00    +0.149 C 
BRANCH   6   7
ATOM      7  C   LYS A   5      -3.672 -35.276   9.651  0.00  0.00    +0.241 C 
ATOM      8  O   LYS A   5      -4.232 -36.164  10.309  0.00  0.00    -0.273 OA
ATOM      9  N   LEU A   6      -3.046 -34.240  10.217  0.00  0.00    -0.298 N 
ATOM     10  H   LEU A   6      -2.668 -33.491   9.603  0.00  0.00    +0.150 HD
BRANCH   9  11
ATOM     11  CA  LEU A   6      -2.872 -34.116  11.646  0.00  0.00    +0.137 C 
BRANCH  11  12
ATOM     12  C   LEU A   6      -3.631 -32.935  12.249  0.00  0.00    +0.227 C 
ATOM     13  O   LEU A   6      -3.843 -31.908  11.583  0.00  0.00    -0.286 OA
ENDBRANCH  11  12
BRANCH  11  14
ATOM     14  CB  LEU A   6      -1.382 -33.965  11.984  0.00  0.00    +0.028 C 
BRANCH  14  15
ATOM     15  CG  LEU A   6      -0.447 -35.025  11.451  0.00  0.00    +0.002 C 
ATOM     16  CD2 LEU A   6      -0.781 -36.408  11.993  0.00  0.00    +0.000 C 
ATOM     17  CD1 LEU A   6       0.983 -34.643  11.821  0.00  0.00    +0.000 C 
ENDBRANCH  14  15
ENDBRANCH  11  14
ENDBRANCH   9  11
ENDBRANCH   6   7
BRANCH   6  18
ATOM     18  CB  LYS A   5      -3.287 -36.804   7.724  0.00  0.00    +0.029 C 
BRANCH  18  19
ATOM     19  CG  LYS A   5      -3.039 -37.044   6.246  0.00  0.00    +0.000 C 
BRANCH  19  20
ATOM     20  CD  LYS A   5      -2.723 -38.520   6.008  0.00  0.00    -0.024 C 
BRANCH  20  21
ATOM     21  CE  LYS A   5      -2.262 -38.808   4.595  0.00  0.00    -0.086 C 
BRANCH  21  22
ATOM     22  NZ  LYS A   5      -1.773 -40.216   4.462  0.00  0.00    +0.380 N 
ATOM     23  HZ1 LYS A   5      -0.973 -40.367   5.110  0.00  0.00    -0.089 HD
ATOM     24  HZ2 LYS A   5      -2.543 -40.873   4.701  0.00  0.00    -0.089 HD
ATOM     25  HZ3 LYS A   5      -1.464 -40.383   3.483  0.00  0.00    -0.089 HD
ENDBRANCH  21  22
ENDBRANCH  20  21
ENDBRANCH  19  20
ENDBRANCH  18  19
ENDBRANCH   6  18
ENDBRANCH   4   6
ENDBRANCH   1   2
BRANCH   1  27
ATOM     26  C   ALA A   3      -2.580 -32.337   5.126  0.00  0.00    +0.241 C 
ATOM     27  N   ASP A   4      -1.701 -32.198   6.129  0.00  0.00    -0.297 N 
ATOM     28  H   ASP A   4      -1.640 -31.285   6.622  0.00  0.00    +0.150 HD
ATOM     29  O   ALA A   3      -2.666 -33.354   4.441  0.00  0.00    -0.273 OA
BRANCH  26  30
ATOM     30  CA  ALA A   3      -3.501 -31.139   4.821  0.00  0.00    +0.149 C 
ATOM     31  CB  ALA A   3      -3.035 -30.422   3.567  0.00  0.00    +0.031 C 
BRANCH  30  34
ATOM     32  C   SER A   2      -3.997 -30.548   7.130  0.00  0.00    +0.243 C 
ATOM     33  O   SER A   2      -4.494 -31.650   7.375  0.00  0.00    -0.273 OA
ATOM     34  N   ALA A   3      -3.588 -30.197   5.926  0.00  0.00    -0.297 N 
ATOM     35  H   ALA A   3      -3.317 -29.207   5.760  0.00  0.00    +0.150 HD
BRANCH  32  36
ATOM     36  CA  SER A   2      -3.743 -29.522   8.232  0.00  0.00    +0.178 C 
BRANCH  36  39
ATOM     37  C   SER A   1      -4.948 -28.615  10.122  0.00  0.00    +0.241 C 
ATOM     38  O   SER A   1      -4.663 -27.441   9.808  0.00  0.00    -0.274 OA
ATOM     39  N   SER A   2      -4.588 -29.674   9.394  0.00  0.00    -0.295 N 
ATOM     40  H   SER A   2      -4.920 -30.621   9.667  0.00  0.00    +0.150 HD
BRANCH  37  41
ATOM     41  CA  SER A   1      -5.758 -28.909  11.375  0.00  0.00    +0.174 C 
BRANCH  41  42
ATOM     42  N   SER A   1      -5.610 -27.785  12.272  0.00  0.00    -0.236 NA
ATOM     43  H   SER A   1      -5.912 -26.846  11.942  0.00  0.00    +0.142 HD
ENDBRANCH  41  42
BRANCH  41  44
ATOM     44  CB  SER A   1      -7.239 -29.129  11.022  0.00  0.00    +0.163 C 
BRANCH  44  45
ATOM     45  OG  SER A   1      -7.821 -28.019  10.359  0.00  0.00    -0.380 OA
ATOM     46  H   SER A   1      -7.332 -27.847   9.515  0.00  0.00    +0.211 HD
ENDBRANCH  44  45
ENDBRANCH  41  44
ENDBRANCH  37  41
ENDBRANCH  36  39
BRANCH  36  47
ATOM     47  CB  SER A   2      -2.292 -29.565   8.721  0.00  0.00    +0.166 C 
BRANCH  47  48
ATOM     48  OG  SER A   2      -1.379 -29.624   7.635  0.00  0.00    -0.380 OA
ATOM     49  H   SER A   2      -1.495 -28.823   7.064  0.00  0.00    +0.211 HD
ENDBRANCH  47  48
ENDBRANCH  36  47
ENDBRANCH  32  36
ENDBRANCH  30  34
ENDBRANCH  26  30
ENDBRANCH   1  27
BRANCH   1  50
ATOM     50  CB  ASP A   4       0.422 -32.759   7.281  0.00  0.00    +0.143 C 
BRANCH  50  51
ATOM     51  CG  ASP A   4       0.125 -32.170   8.674  0.00  0.00    +0.367 C 
ATOM     52  OD2 ASP A   4       1.029 -31.565   9.283  0.00  0.00    -0.246 OA
ATOM     53  OD1 ASP A   4      -1.020 -32.271   9.177  0.00  0.00    -0.246 OA
ENDBRANCH  50  51
ENDBRANCH   1  50
TORSDOF 25
REMARK  Name = ../refined-set-2016/4ql1/4ql1_pocket.pdb
REMARK  213 active torsions:
REMARK  status: ('A' for Active; 'I' for Inactive)
REMARK    1  A    between atoms: _1  and  _3
REMARK    2  A    between atoms: _3  and  _4
REMARK    3  A    between atoms: _3  and  _6
REMARK    4  A    between atoms: _6  and  _7
REMARK    5  A    between atoms: _7  and  _8
REMARK    6  A    between atoms: _8  and  _9
REMARK    7  A    between atoms: _9  and  _10
REMARK    8  A    between atoms: _14  and  _16
REMARK    9  A    between atoms: _16  and  _17
REMARK   10  A    between atoms: _20  and  _22
REMARK   11  A    between atoms: _22  and  _23
REMARK   12  A    between atoms: _22  and  _25
REMARK   13  A    between atoms: _28  and  _30
REMARK   14  A    between atoms: _30  and  _31
REMARK   15  A    between atoms: _30  and  _33
REMARK   16  A    between atoms: _33  and  _34
REMARK   17  A    between atoms: _36  and  _38
REMARK   18  A    between atoms: _38  and  _39
REMARK   19  A    between atoms: _38  and  _41
REMARK   20  A    between atoms: _41  and  _42
REMARK   21  A    between atoms: _44  and  _46
REMARK   22  A    between atoms: _46  and  _47
REMARK   23  A    between atoms: _46  and  _49
REMARK   24  A    between atoms: _52  and  _54
REMARK   25  A    between atoms: _54  and  _55
REMARK   26  A    between atoms: _54  and  _57
REMARK   27  A    between atoms: _57  and  _58
REMARK   28  A    between atoms: _58  and  _59
REMARK   29  A    between atoms: _59  and  _60
REMARK   30  A    between atoms: _60  and  _61
REMARK   31  A    between atoms: _65  and  _67
REMARK   32  A    between atoms: _67  and  _68
REMARK   33  A    between atoms: _67  and  _70
REMARK   34  A    between atoms: _70  and  _71
REMARK   35  A    between atoms: _73  and  _75
REMARK   36  A    between atoms: _75  and  _76
REMARK   37  A    between atoms: _75  and  _78
REMARK   38  A    between atoms: _78  and  _79
REMARK   39  A    between atoms: _81  and  _83
REMARK   40  A    between atoms: _83  and  _84
REMARK   41  A    between atoms: _87  and  _89
REMARK   42  A    between atoms: _89  and  _90
REMARK   43  A    between atoms: _89  and  _92
REMARK   44  A    between atoms: _92  and  _93
REMARK   45  A    between atoms: _96  and  _98
REMARK   46  A    between atoms: _98  and  _99
REMARK   47  A    between atoms: _98  and  _101
REMARK   48  A    between atoms: _101  and  _102
REMARK   49  A    between atoms: _102  and  _103
REMARK   50  A    between atoms: _103  and  _104
REMARK   51  A    between atoms: _104  and  _105
REMARK   52  A    between atoms: _109  and  _111
REMARK   53  A    between atoms: _111  and  _112
REMARK   54  A    between atoms: _111  and  _114
REMARK   55  A    between atoms: _114  and  _115
REMARK   56  A    between atoms: _118  and  _120
REMARK   57  A    between atoms: _120  and  _121
REMARK   58  A    between atoms: _120  and  _123
REMARK   59  A    between atoms: _123  and  _124
REMARK   60  A    between atoms: _127  and  _129
REMARK   61  A    between atoms: _129  and  _130
REMARK   62  A    between atoms: _132  and  _134
REMARK   63  A    between atoms: _134  and  _135
REMARK   64  A    between atoms: _134  and  _137
REMARK   65  A    between atoms: _137  and  _138
REMARK   66  A    between atoms: _141  and  _143
REMARK   67  A    between atoms: _143  and  _144
REMARK   68  A    between atoms: _143  and  _146
REMARK   69  A    between atoms: _146  and  _147
REMARK   70  A    between atoms: _149  and  _151
REMARK   71  A    between atoms: _151  and  _152
REMARK   72  A    between atoms: _151  and  _154
REMARK   73  A    between atoms: _154  and  _155
REMARK   74  A    between atoms: _158  and  _160
REMARK   75  A    between atoms: _160  and  _161
REMARK   76  A    between atoms: _160  and  _163
REMARK   77  A    between atoms: _166  and  _168
REMARK   78  A    between atoms: _168  and  _169
REMARK   79  A    between atoms: _172  and  _174
REMARK   80  A    between atoms: _174  and  _175
REMARK   81  A    between atoms: _174  and  _177
REMARK   82  A    between atoms: _177  and  _178
REMARK   83  A    between atoms: _180  and  _182
REMARK   84  A    between atoms: _182  and  _183
REMARK   85  A    between atoms: _182  and  _185
REMARK   86  A    between atoms: _185  and  _186
REMARK   87  A    between atoms: _189  and  _191
REMARK   88  A    between atoms: _191  and  _192
REMARK   89  A    between atoms: _191  and  _194
REMARK   90  A    between atoms: _194  and  _195
REMARK   91  A    between atoms: _198  and  _200
REMARK   92  A    between atoms: _200  and  _201
REMARK   93  A    between atoms: _200  and  _203
REMARK   94  A    between atoms: _203  and  _204
REMARK   95  A    between atoms: _209  and  _210
REMARK   96  A    between atoms: _212  and  _214
REMARK   97  A    between atoms: _214  and  _215
REMARK   98  A    between atoms: _214  and  _217
REMARK   99  A    between atoms: _220  and  _222
REMARK  100  A    between atoms: _222  and  _223
REMARK  101  A    between atoms: _222  and  _225
REMARK  102  A    between atoms: _225  and  _226
REMARK  103  A    between atoms: _232  and  _234
REMARK  104  A    between atoms: _234  and  _235
REMARK  105  A    between atoms: _234  and  _237
REMARK  106  A    between atoms: _239  and  _241
REMARK  107  A    between atoms: _241  and  _242
REMARK  108  A    between atoms: _241  and  _244
REMARK  109  A    between atoms: _246  and  _248
REMARK  110  A    between atoms: _248  and  _249
REMARK  111  A    between atoms: _251  and  _253
REMARK  112  A    between atoms: _253  and  _254
REMARK  113  A    between atoms: _253  and  _256
REMARK  114  A    between atoms: _256  and  _257
REMARK  115  A    between atoms: _259  and  _261
REMARK  116  A    between atoms: _261  and  _262
REMARK  117  A    between atoms: _261  and  _264
REMARK  118  A    between atoms: _264  and  _265
REMARK  119  A    between atoms: _271  and  _273
REMARK  120  A    between atoms: _273  and  _274
REMARK  121  A    between atoms: _273  and  _276
REMARK  122  A    between atoms: _276  and  _277
REMARK  123  A    between atoms: _281  and  _282
REMARK  124  A    between atoms: _287  and  _289
REMARK  125  A    between atoms: _289  and  _290
REMARK  126  A    between atoms: _289  and  _292
REMARK  127  A    between atoms: _295  and  _297
REMARK  128  A    between atoms: _297  and  _298
REMARK  129  A    between atoms: _297  and  _300
REMARK  130  A    between atoms: _300  and  _301
REMARK  131  A    between atoms: _303  and  _305
REMARK  132  A    between atoms: _305  and  _306
REMARK  133  A    between atoms: _309  and  _311
REMARK  134  A    between atoms: _311  and  _312
REMARK  135  A    between atoms: _311  and  _314
REMARK  136  A    between atoms: _317  and  _319
REMARK  137  A    between atoms: _319  and  _320
REMARK  138  A    between atoms: _319  and  _322
REMARK  139  A    between atoms: _322  and  _323
REMARK  140  A    between atoms: _325  and  _327
REMARK  141  A    between atoms: _327  and  _328
REMARK  142  A    between atoms: _327  and  _330
REMARK  143  A    between atoms: _330  and  _331
REMARK  144  A    between atoms: _333  and  _335
REMARK  145  A    between atoms: _335  and  _336
REMARK  146  A    between atoms: _335  and  _338
REMARK  147  A    between atoms: _338  and  _339
REMARK  148  A    between atoms: _344  and  _345
REMARK  149  A    between atoms: _348  and  _349
REMARK  150  A    between atoms: _354  and  _356
REMARK  151  A    between atoms: _356  and  _357
REMARK  152  A    between atoms: _356  and  _359
REMARK  153  A    between atoms: _362  and  _364
REMARK  154  A    between atoms: _364  and  _365
REMARK  155  A    between atoms: _364  and  _367
REMARK  156  A    between atoms: _367  and  _368
REMARK  157  A    between atoms: _370  and  _372
REMARK  158  A    between atoms: _372  and  _373
REMARK  159  A    between atoms: _372  and  _375
REMARK  160  A    between atoms: _375  and  _376
REMARK  161  A    between atoms: _382  and  _384
REMARK  162  A    between atoms: _384  and  _385
REMARK  163  A    between atoms: _384  and  _387
REMARK  164  A    between atoms: _387  and  _388
REMARK  165  A    between atoms: _391  and  _393
REMARK  166  A    between atoms: _393  and  _394
REMARK  167  A    between atoms: _393  and  _396
REMARK  168  A    between atoms: _396  and  _397
REMARK  169  A    between atoms: _397  and  _398
REMARK  170  A    between atoms: _398  and  _399
REMARK  171  A    between atoms: _399  and  _400
REMARK  172  A    between atoms: _404  and  _406
REMARK  173  A    between atoms: _406  and  _407
REMARK  174  A    between atoms: _406  and  _409
REMARK  175  A    between atoms: _409  and  _410
REMARK  176  A    between atoms: _415  and  _416
REMARK  177  A    between atoms: _418  and  _420
REMARK  178  A    between atoms: _420  and  _421
REMARK  179  A    between atoms: _420  and  _423
REMARK  180  A    between atoms: _425  and  _427
REMARK  181  A    between atoms: _427  and  _428
REMARK  182  A    between atoms: _427  and  _430
REMARK  183  A    between atoms: _430  and  _431
REMARK  184  A    between atoms: _434  and  _436
REMARK  185  A    between atoms: _436  and  _437
REMARK  186  A    between atoms: _436  and  _439
REMARK  187  A    between atoms: _439  and  _440
REMARK  188  A    between atoms: _446  and  _448
REMARK  189  A    between atoms: _448  and  _449
REMARK  190  A    between atoms: _448  and  _451
REMARK  191  A    between atoms: _454  and  _456
REMARK  192  A    between atoms: _456  and  _457
REMARK  193  A    between atoms: _456  and  _459
REMARK  194  A    between atoms: _459  and  _460
REMARK  195  A    between atoms: _463  and  _465
REMARK  196  A    between atoms: _465  and  _466
REMARK  197  A    between atoms: _465  and  _468
REMARK  198  A    between atoms: _468  and  _469
REMARK  199  A    between atoms: _471  and  _473
REMARK  200  A    between atoms: _473  and  _474
REMARK  201  A    between atoms: _473  and  _476
REMARK  202  A    between atoms: _476  and  _477
REMARK  203  A    between atoms: _480  and  _482
REMARK  204  A    between atoms: _482  and  _483
REMARK  205  A    between atoms: _486  and  _488
REMARK  206  A    between atoms: _488  and  _489
REMARK  207  A    between atoms: _488  and  _491
REMARK  208  A    between atoms: _491  and  _492
REMARK  209  A    between atoms: _495  and  _497
REMARK  210  A    between atoms: _497  and  _498
REMARK  211  A    between atoms: _497  and  _500
REMARK  212  A    between atoms: _500  and  _501
REMARK  213  A    between atoms: _501  and  _502
REMARK                            x       y       z     vdW  Elec       q    Type
REMARK                         _______ _______ _______ _____ _____    ______ ____
ROOT
ATOM      1  C   ILE A   3      -8.521 -30.864   6.912  0.00  0.00    +0.241 C 
ATOM      2  O   ILE A   3      -7.607 -30.096   6.823  0.00  0.00    -0.273 OA
ATOM      3  N   SER A   4      -9.791 -30.523   6.709  0.00  0.00    -0.295 N 
ATOM      4  H   SER A   4     -10.530 -31.241   6.851  0.00  0.00    +0.150 HD
ENDROOT
BRANCH   3   5
ATOM      5  CA  SER A   4     -10.187 -29.185   6.296  0.00  0.00    +0.178 C 
BRANCH   5   6
ATOM      6  C   SER A   4     -10.615 -28.309   7.486  0.00  0.00    +0.243 C 
ATOM      7  N   ASP A   5     -11.092 -28.915   8.567  0.00  0.00    -0.296 N 
ATOM      8  H   ASP A   5     -11.066 -29.953   8.633  0.00  0.00    +0.150 HD
ATOM      9  O   SER A   4     -10.532 -27.102   7.400  0.00  0.00    -0.273 OA
BRANCH   7  10
ATOM     10  CA  ASP A   5     -11.659 -28.122   9.674  0.00  0.00    +0.160 C 
BRANCH  10  11
ATOM     11  C   ASP A   5     -11.633 -28.907  10.971  0.00  0.00    +0.241 C 
ATOM     12  N   VAL A   6     -11.712 -28.150  12.058  0.00  0.00    -0.298 N 
ATOM     13  H   VAL A   6     -11.686 -27.116  11.950  0.00  0.00    +0.150 HD
ATOM     14  O   ASP A   5     -11.617 -30.143  10.995  0.00  0.00    -0.273 OA
BRANCH  12  15
ATOM     15  CA  VAL A   6     -11.833 -28.710  13.396  0.00  0.00    +0.137 C 
BRANCH  15  16
ATOM     16  CB  VAL A   6     -10.479 -28.865  14.132  0.00  0.00    +0.026 C 
ATOM     17  CG2 VAL A   6      -9.672 -27.579  14.225  0.00  0.00    +0.002 C 
ATOM     18  CG1 VAL A   6      -9.676 -29.952  13.503  0.00  0.00    +0.002 C 
ENDBRANCH  15  16
BRANCH  15  19
ATOM     19  C   VAL A   6     -12.709 -27.790  14.188  0.00  0.00    +0.227 C 
ATOM     20  O   VAL A   6     -12.806 -26.598  13.890  0.00  0.00    -0.286 OA
ENDBRANCH  15  19
ENDBRANCH  12  15
ENDBRANCH  10  11
BRANCH  10  21
ATOM     21  CB  ASP A   5     -13.161 -27.839   9.395  0.00  0.00    +0.143 C 
BRANCH  21  22
ATOM     22  CG  ASP A   5     -13.675 -26.548  10.036  0.00  0.00    +0.367 C 
ATOM     23  OD2 ASP A   5     -12.882 -25.817  10.633  0.00  0.00    -0.246 OA
ATOM     24  OD1 ASP A   5     -14.913 -26.265   9.891  0.00  0.00    -0.246 OA
ENDBRANCH  21  22
ENDBRANCH  10  21
ENDBRANCH   7  10
ENDBRANCH   5   6
BRANCH   5  25
ATOM     25  CB  SER A   4     -11.321 -29.313   5.277  0.00  0.00    +0.166 C 
BRANCH  25  26
ATOM     26  OG  SER A   4     -11.811 -28.077   4.853  0.00  0.00    -0.380 OA
ATOM     27  H   SER A   4     -12.160 -27.577   5.633  0.00  0.00    +0.211 HD
ENDBRANCH  25  26
ENDBRANCH   5  25
ENDBRANCH   3   5
BRANCH   1  28
ATOM     28  CA  ILE A   3      -8.257 -32.306   7.308  0.00  0.00    +0.149 C 
BRANCH  28  30
ATOM     29  C   GLY A   2      -7.347 -33.711   5.514  0.00  0.00    +0.243 C 
ATOM     30  N   ILE A   3      -7.162 -32.805   6.465  0.00  0.00    -0.297 N 
ATOM     31  H   ILE A   3      -6.203 -32.433   6.620  0.00  0.00    +0.150 HD
ATOM     32  O   GLY A   2      -8.440 -34.217   5.244  0.00  0.00    -0.273 OA
BRANCH  29  33
ATOM     33  CA  GLY A   2      -6.109 -34.098   4.776  0.00  0.00    +0.176 C 
BRANCH  33  36
ATOM     34  C   LEU A   1      -6.394 -36.503   4.919  0.00  0.00    +0.238 C 
ATOM     35  O   LEU A   1      -6.576 -36.459   6.131  0.00  0.00    -0.274 OA
ATOM     36  N   GLY A   2      -6.159 -35.427   4.188  0.00  0.00    -0.296 N 
ATOM     37  H   GLY A   2      -6.006 -35.534   3.165  0.00  0.00    +0.150 HD
BRANCH  34  38
ATOM     38  CA  LEU A   1      -6.371 -37.856   4.190  0.00  0.00    +0.145 C 
BRANCH  38  39
ATOM     39  N   LEU A   1      -6.638 -38.938   5.128  0.00  0.00    -0.238 NA
ATOM     40  H   LEU A   1      -7.366 -38.787   5.855  0.00  0.00    +0.142 HD
ENDBRANCH  38  39
BRANCH  38  41
ATOM     41  CB  LEU A   1      -7.378 -37.880   3.047  0.00  0.00    +0.026 C 
BRANCH  41  42
ATOM     42  CG  LEU A   1      -7.268 -39.091   2.106  0.00  0.00    +0.002 C 
ATOM     43  CD2 LEU A   1      -5.994 -39.020   1.296  0.00  0.00    +0.000 C 
ATOM     44  CD1 LEU A   1      -8.452 -39.154   1.178  0.00  0.00    +0.000 C 
ENDBRANCH  41  42
ENDBRANCH  38  41
ENDBRANCH  34  38
ENDBRANCH  33  36
ENDBRANCH  29  33
ENDBRANCH  28  30
BRANCH  28  45
ATOM     45  CB  ILE A   3      -7.889 -32.383   8.796  0.00  0.00    +0.027 C 
ATOM     46  CG2 ILE A   3      -9.028 -31.821   9.632  0.00  0.00    +0.002 C 
BRANCH  45  47
ATOM     47  CG1 ILE A   3      -7.594 -33.833   9.250  0.00  0.00    +0.002 C 
ATOM     48  CD1 ILE A   3      -6.954 -33.891  10.619  0.00  0.00    +0.000 C 
ENDBRANCH  45  47
ENDBRANCH  28  45
ENDBRANCH   1  28
TORSDOF 21
REMARK  Name = ../refined-set-2016/4ql1/4ql1_pocket.pdb
REMARK  213 active torsions:
REMARK  status: ('A' for Active; 'I' for Inactive)
REMARK    1  A    between atoms: _1  and  _3
REMARK    2  A    between atoms: _3  and  _4
REMARK    3  A    between atoms: _3  and  _6
REMARK    4  A    between atoms: _6  and  _7
REMARK    5  A    between atoms: _7  and  _8
REMARK    6  A    between atoms: _8  and  _9
REMARK    7  A    between atoms: _9  and  _10
REMARK    8  A    between atoms: _14  and  _16
REMARK    9  A    between atoms: _16  and  _17
REMARK   10  A    between atoms: _20  and  _22
REMARK   11  A    between atoms: _22  and  _23
REMARK   12  A    between atoms: _22  and  _25
REMARK   13  A    between atoms: _28  and  _30
REMARK   14  A    between atoms: _30  and  _31
REMARK   15  A    between atoms: _30  and  _33
REMARK   16  A    between atoms: _33  and  _34
REMARK   17  A    between atoms: _36  and  _38
REMARK   18  A    between atoms: _38  and  _39
REMARK   19  A    between atoms: _38  and  _41
REMARK   20  A    between atoms: _41  and  _42
REMARK   21  A    between atoms: _44  and  _46
REMARK   22  A    between atoms: _46  and  _47
REMARK   23  A    between atoms: _46  and  _49
REMARK   24  A    between atoms: _52  and  _54
REMARK   25  A    between atoms: _54  and  _55
REMARK   26  A    between atoms: _54  and  _57
REMARK   27  A    between atoms: _57  and  _58
REMARK   28  A    between atoms: _58  and  _59
REMARK   29  A    between atoms: _59  and  _60
REMARK   30  A    between atoms: _60  and  _61
REMARK   31  A    between atoms: _65  and  _67
REMARK   32  A    between atoms: _67  and  _68
REMARK   33  A    between atoms: _67  and  _70
REMARK   34  A    between atoms: _70  and  _71
REMARK   35  A    between atoms: _73  and  _75
REMARK   36  A    between atoms: _75  and  _76
REMARK   37  A    between atoms: _75  and  _78
REMARK   38  A    between atoms: _78  and  _79
REMARK   39  A    between atoms: _81  and  _83
REMARK   40  A    between atoms: _83  and  _84
REMARK   41  A    between atoms: _87  and  _89
REMARK   42  A    between atoms: _89  and  _90
REMARK   43  A    between atoms: _89  and  _92
REMARK   44  A    between atoms: _92  and  _93
REMARK   45  A    between atoms: _96  and  _98
REMARK   46  A    between atoms: _98  and  _99
REMARK   47  A    between atoms: _98  and  _101
REMARK   48  A    between atoms: _101  and  _102
REMARK   49  A    between atoms: _102  and  _103
REMARK   50  A    between atoms: _103  and  _104
REMARK   51  A    between atoms: _104  and  _105
REMARK   52  A    between atoms: _109  and  _111
REMARK   53  A    between atoms: _111  and  _112
REMARK   54  A    between atoms: _111  and  _114
REMARK   55  A    between atoms: _114  and  _115
REMARK   56  A    between atoms: _118  and  _120
REMARK   57  A    between atoms: _120  and  _121
REMARK   58  A    between atoms: _120  and  _123
REMARK   59  A    between atoms: _123  and  _124
REMARK   60  A    between atoms: _127  and  _129
REMARK   61  A    between atoms: _129  and  _130
REMARK   62  A    between atoms: _132  and  _134
REMARK   63  A    between atoms: _134  and  _135
REMARK   64  A    between atoms: _134  and  _137
REMARK   65  A    between atoms: _137  and  _138
REMARK   66  A    between atoms: _141  and  _143
REMARK   67  A    between atoms: _143  and  _144
REMARK   68  A    between atoms: _143  and  _146
REMARK   69  A    between atoms: _146  and  _147
REMARK   70  A    between atoms: _149  and  _151
REMARK   71  A    between atoms: _151  and  _152
REMARK   72  A    between atoms: _151  and  _154
REMARK   73  A    between atoms: _154  and  _155
REMARK   74  A    between atoms: _158  and  _160
REMARK   75  A    between atoms: _160  and  _161
REMARK   76  A    between atoms: _160  and  _163
REMARK   77  A    between atoms: _166  and  _168
REMARK   78  A    between atoms: _168  and  _169
REMARK   79  A    between atoms: _172  and  _174
REMARK   80  A    between atoms: _174  and  _175
REMARK   81  A    between atoms: _174  and  _177
REMARK   82  A    between atoms: _177  and  _178
REMARK   83  A    between atoms: _180  and  _182
REMARK   84  A    between atoms: _182  and  _183
REMARK   85  A    between atoms: _182  and  _185
REMARK   86  A    between atoms: _185  and  _186
REMARK   87  A    between atoms: _189  and  _191
REMARK   88  A    between atoms: _191  and  _192
REMARK   89  A    between atoms: _191  and  _194
REMARK   90  A    between atoms: _194  and  _195
REMARK   91  A    between atoms: _198  and  _200
REMARK   92  A    between atoms: _200  and  _201
REMARK   93  A    between atoms: _200  and  _203
REMARK   94  A    between atoms: _203  and  _204
REMARK   95  A    between atoms: _209  and  _210
REMARK   96  A    between atoms: _212  and  _214
REMARK   97  A    between atoms: _214  and  _215
REMARK   98  A    between atoms: _214  and  _217
REMARK   99  A    between atoms: _220  and  _222
REMARK  100  A    between atoms: _222  and  _223
REMARK  101  A    between atoms: _222  and  _225
REMARK  102  A    between atoms: _225  and  _226
REMARK  103  A    between atoms: _232  and  _234
REMARK  104  A    between atoms: _234  and  _235
REMARK  105  A    between atoms: _234  and  _237
REMARK  106  A    between atoms: _239  and  _241
REMARK  107  A    between atoms: _241  and  _242
REMARK  108  A    between atoms: _241  and  _244
REMARK  109  A    between atoms: _246  and  _248
REMARK  110  A    between atoms: _248  and  _249
REMARK  111  A    between atoms: _251  and  _253
REMARK  112  A    between atoms: _253  and  _254
REMARK  113  A    between atoms: _253  and  _256
REMARK  114  A    between atoms: _256  and  _257
REMARK  115  A    between atoms: _259  and  _261
REMARK  116  A    between atoms: _261  and  _262
REMARK  117  A    between atoms: _261  and  _264
REMARK  118  A    between atoms: _264  and  _265
REMARK  119  A    between atoms: _271  and  _273
REMARK  120  A    between atoms: _273  and  _274
REMARK  121  A    between atoms: _273  and  _276
REMARK  122  A    between atoms: _276  and  _277
REMARK  123  A    between atoms: _281  and  _282
REMARK  124  A    between atoms: _287  and  _289
REMARK  125  A    between atoms: _289  and  _290
REMARK  126  A    between atoms: _289  and  _292
REMARK  127  A    between atoms: _295  and  _297
REMARK  128  A    between atoms: _297  and  _298
REMARK  129  A    between atoms: _297  and  _300
REMARK  130  A    between atoms: _300  and  _301
REMARK  131  A    between atoms: _303  and  _305
REMARK  132  A    between atoms: _305  and  _306
REMARK  133  A    between atoms: _309  and  _311
REMARK  134  A    between atoms: _311  and  _312
REMARK  135  A    between atoms: _311  and  _314
REMARK  136  A    between atoms: _317  and  _319
REMARK  137  A    between atoms: _319  and  _320
REMARK  138  A    between atoms: _319  and  _322
REMARK  139  A    between atoms: _322  and  _323
REMARK  140  A    between atoms: _325  and  _327
REMARK  141  A    between atoms: _327  and  _328
REMARK  142  A    between atoms: _327  and  _330
REMARK  143  A    between atoms: _330  and  _331
REMARK  144  A    between atoms: _333  and  _335
REMARK  145  A    between atoms: _335  and  _336
REMARK  146  A    between atoms: _335  and  _338
REMARK  147  A    between atoms: _338  and  _339
REMARK  148  A    between atoms: _344  and  _345
REMARK  149  A    between atoms: _348  and  _349
REMARK  150  A    between atoms: _354  and  _356
REMARK  151  A    between atoms: _356  and  _357
REMARK  152  A    between atoms: _356  and  _359
REMARK  153  A    between atoms: _362  and  _364
REMARK  154  A    between atoms: _364  and  _365
REMARK  155  A    between atoms: _364  and  _367
REMARK  156  A    between atoms: _367  and  _368
REMARK  157  A    between atoms: _370  and  _372
REMARK  158  A    between atoms: _372  and  _373
REMARK  159  A    between atoms: _372  and  _375
REMARK  160  A    between atoms: _375  and  _376
REMARK  161  A    between atoms: _382  and  _384
REMARK  162  A    between atoms: _384  and  _385
REMARK  163  A    between atoms: _384  and  _387
REMARK  164  A    between atoms: _387  and  _388
REMARK  165  A    between atoms: _391  and  _393
REMARK  166  A    between atoms: _393  and  _394
REMARK  167  A    between atoms: _393  and  _396
REMARK  168  A    between atoms: _396  and  _397
REMARK  169  A    between atoms: _397  and  _398
REMARK  170  A    between atoms: _398  and  _399
REMARK  171  A    between atoms: _399  and  _400
REMARK  172  A    between atoms: _404  and  _406
REMARK  173  A    between atoms: _406  and  _407
REMARK  174  A    between atoms: _406  and  _409
REMARK  175  A    between atoms: _409  and  _410
REMARK  176  A    between atoms: _415  and  _416
REMARK  177  A    between atoms: _418  and  _420
REMARK  178  A    between atoms: _420  and  _421
REMARK  179  A    between atoms: _420  and  _423
REMARK  180  A    between atoms: _425  and  _427
REMARK  181  A    between atoms: _427  and  _428
REMARK  182  A    between atoms: _427  and  _430
REMARK  183  A    between atoms: _430  and  _431
REMARK  184  A    between atoms: _434  and  _436
REMARK  185  A    between atoms: _436  and  _437
REMARK  186  A    between atoms: _436  and  _439
REMARK  187  A    between atoms: _439  and  _440
REMARK  188  A    between atoms: _446  and  _448
REMARK  189  A    between atoms: _448  and  _449
REMARK  190  A    between atoms: _448  and  _451
REMARK  191  A    between atoms: _454  and  _456
REMARK  192  A    between atoms: _456  and  _457
REMARK  193  A    between atoms: _456  and  _459
REMARK  194  A    between atoms: _459  and  _460
REMARK  195  A    between atoms: _463  and  _465
REMARK  196  A    between atoms: _465  and  _466
REMARK  197  A    between atoms: _465  and  _468
REMARK  198  A    between atoms: _468  and  _469
REMARK  199  A    between atoms: _471  and  _473
REMARK  200  A    between atoms: _473  and  _474
REMARK  201  A    between atoms: _473  and  _476
REMARK  202  A    between atoms: _476  and  _477
REMARK  203  A    between atoms: _480  and  _482
REMARK  204  A    between atoms: _482  and  _483
REMARK  205  A    between atoms: _486  and  _488
REMARK  206  A    between atoms: _488  and  _489
REMARK  207  A    between atoms: _488  and  _491
REMARK  208  A    between atoms: _491  and  _492
REMARK  209  A    between atoms: _495  and  _497
REMARK  210  A    between atoms: _497  and  _498
REMARK  211  A    between atoms: _497  and  _500
REMARK  212  A    between atoms: _500  and  _501
REMARK  213  A    between atoms: _501  and  _502
REMARK                            x       y       z     vdW  Elec       q    Type
REMARK                         _______ _______ _______ _____ _____    ______ ____
ROOT
ATOM      1  C   SER A   2     -12.008 -35.054   4.904  0.00  0.00    +0.243 C 
ATOM      2  O   SER A   2     -13.174 -35.334   4.524  0.00  0.00    -0.273 OA
ATOM      3  N   ASP A   3     -10.992 -34.962   4.079  0.00  0.00    -0.296 N 
ATOM      4  H   ASP A   3     -10.100 -34.560   4.431  0.00  0.00    +0.150 HD
ENDROOT
BRANCH   1   5
ATOM      5  CA  SER A   2     -11.647 -34.806   6.373  0.00  0.00    +0.178 C 
BRANCH   5   8
ATOM      6  C   ALA A   1     -12.648 -33.176   7.893  0.00  0.00    +0.238 C 
ATOM      7  O   ALA A   1     -11.796 -32.306   7.682  0.00  0.00    -0.274 OA
ATOM      8  N   SER A   2     -12.732 -34.327   7.221  0.00  0.00    -0.295 N 
ATOM      9  H   SER A   2     -13.597 -34.899   7.305  0.00  0.00    +0.150 HD
BRANCH   6  10
ATOM     10  CA  ALA A   1     -13.750 -32.908   8.918  0.00  0.00    +0.145 C 
ATOM     11  CB  ALA A   1     -14.589 -31.696   8.496  0.00  0.00    +0.028 C 
BRANCH  10  12
ATOM     12  N   ALA A   1     -13.108 -32.615  10.185  0.00  0.00    -0.238 NA
ATOM     13  H   ALA A   1     -12.491 -31.780  10.241  0.00  0.00    +0.142 HD
ENDBRANCH  10  12
ENDBRANCH   6  10
ENDBRANCH   5   8
BRANCH   5  14
ATOM     14  CB  SER A   2     -11.023 -36.063   6.952  0.00  0.00    +0.166 C 
BRANCH  14  15
ATOM     15  OG  SER A   2      -9.952 -36.538   6.138  0.00  0.00    -0.380 OA
ATOM     16  H   SER A   2      -9.252 -35.840   6.075  0.00  0.00    +0.211 HD
ENDBRANCH  14  15
ENDBRANCH   5  14
ENDBRANCH   1   5
BRANCH   3  17
ATOM     17  CA  ASP A   3     -11.062 -35.406   2.672  0.00  0.00    +0.160 C 
BRANCH  17  18
ATOM     18  C   ASP A   3     -11.306 -36.908   2.544  0.00  0.00    +0.241 C 
ATOM     19  N   ASP A   4     -11.098 -37.652   3.634  0.00  0.00    -0.298 N 
ATOM     20  H   ASP A   4     -10.730 -37.195   4.493  0.00  0.00    +0.150 HD
ATOM     21  O   ASP A   3     -11.704 -37.361   1.472  0.00  0.00    -0.273 OA
BRANCH  19  22
ATOM     22  CA  ASP A   4     -11.370 -39.084   3.659  0.00  0.00    +0.148 C 
BRANCH  22  23
ATOM     23  C   ASP A   4     -12.851 -39.408   3.763  0.00  0.00    +0.227 C 
ATOM     24  O   ASP A   4     -13.206 -40.574   3.920  0.00  0.00    -0.286 OA
ENDBRANCH  22  23
BRANCH  22  25
ATOM     25  CB  ASP A   4     -10.543 -39.826   4.737  0.00  0.00    +0.142 C 
BRANCH  25  26
ATOM     26  CG  ASP A   4     -10.916 -39.470   6.170  0.00  0.00    +0.367 C 
ATOM     27  OD2 ASP A   4     -10.111 -39.807   7.075  0.00  0.00    -0.246 OA
ATOM     28  OD1 ASP A   4     -11.999 -38.893   6.404  0.00  0.00    -0.246 OA
ENDBRANCH  25  26
ENDBRANCH  22  25
ENDBRANCH  19  22
ENDBRANCH  17  18
BRANCH  17  29
ATOM     29  CB  ASP A   3      -9.760 -35.035   1.939  0.00  0.00    +0.143 C 
BRANCH  29  30
ATOM     30  CG  ASP A   3      -9.629 -33.545   1.672  0.00  0.00    +0.367 C 
ATOM     31  OD2 ASP A   3     -10.660 -32.838   1.651  0.00  0.00    -0.246 OA
ATOM     32  OD1 ASP A   3      -8.487 -33.083   1.464  0.00  0.00    -0.246 OA
ENDBRANCH  29  30
ENDBRANCH  17  29
ENDBRANCH   3  17
TORSDOF 14
REMARK  Name = ../refined-set-2016/4ql1/4ql1_pocket.pdb
REMARK  213 active torsions:
REMARK  status: ('A' for Active; 'I' for Inactive)
REMARK    1  A    between atoms: _1  and  _3
REMARK    2  A    between atoms: _3  and  _4
REMARK    3  A    between atoms: _3  and  _6
REMARK    4  A    between atoms: _6  and  _7
REMARK    5  A    between atoms: _7  and  _8
REMARK    6  A    between atoms: _8  and  _9
REMARK    7  A    between atoms: _9  and  _10
REMARK    8  A    between atoms: _14  and  _16
REMARK    9  A    between atoms: _16  and  _17
REMARK   10  A    between atoms: _20  and  _22
REMARK   11  A    between atoms: _22  and  _23
REMARK   12  A    between atoms: _22  and  _25
REMARK   13  A    between atoms: _28  and  _30
REMARK   14  A    between atoms: _30  and  _31
REMARK   15  A    between atoms: _30  and  _33
REMARK   16  A    between atoms: _33  and  _34
REMARK   17  A    between atoms: _36  and  _38
REMARK   18  A    between atoms: _38  and  _39
REMARK   19  A    between atoms: _38  and  _41
REMARK   20  A    between atoms: _41  and  _42
REMARK   21  A    between atoms: _44  and  _46
REMARK   22  A    between atoms: _46  and  _47
REMARK   23  A    between atoms: _46  and  _49
REMARK   24  A    between atoms: _52  and  _54
REMARK   25  A    between atoms: _54  and  _55
REMARK   26  A    between atoms: _54  and  _57
REMARK   27  A    between atoms: _57  and  _58
REMARK   28  A    between atoms: _58  and  _59
REMARK   29  A    between atoms: _59  and  _60
REMARK   30  A    between atoms: _60  and  _61
REMARK   31  A    between atoms: _65  and  _67
REMARK   32  A    between atoms: _67  and  _68
REMARK   33  A    between atoms: _67  and  _70
REMARK   34  A    between atoms: _70  and  _71
REMARK   35  A    between atoms: _73  and  _75
REMARK   36  A    between atoms: _75  and  _76
REMARK   37  A    between atoms: _75  and  _78
REMARK   38  A    between atoms: _78  and  _79
REMARK   39  A    between atoms: _81  and  _83
REMARK   40  A    between atoms: _83  and  _84
REMARK   41  A    between atoms: _87  and  _89
REMARK   42  A    between atoms: _89  and  _90
REMARK   43  A    between atoms: _89  and  _92
REMARK   44  A    between atoms: _92  and  _93
REMARK   45  A    between atoms: _96  and  _98
REMARK   46  A    between atoms: _98  and  _99
REMARK   47  A    between atoms: _98  and  _101
REMARK   48  A    between atoms: _101  and  _102
REMARK   49  A    between atoms: _102  and  _103
REMARK   50  A    between atoms: _103  and  _104
REMARK   51  A    between atoms: _104  and  _105
REMARK   52  A    between atoms: _109  and  _111
REMARK   53  A    between atoms: _111  and  _112
REMARK   54  A    between atoms: _111  and  _114
REMARK   55  A    between atoms: _114  and  _115
REMARK   56  A    between atoms: _118  and  _120
REMARK   57  A    between atoms: _120  and  _121
REMARK   58  A    between atoms: _120  and  _123
REMARK   59  A    between atoms: _123  and  _124
REMARK   60  A    between atoms: _127  and  _129
REMARK   61  A    between atoms: _129  and  _130
REMARK   62  A    between atoms: _132  and  _134
REMARK   63  A    between atoms: _134  and  _135
REMARK   64  A    between atoms: _134  and  _137
REMARK   65  A    between atoms: _137  and  _138
REMARK   66  A    between atoms: _141  and  _143
REMARK   67  A    between atoms: _143  and  _144
REMARK   68  A    between atoms: _143  and  _146
REMARK   69  A    between atoms: _146  and  _147
REMARK   70  A    between atoms: _149  and  _151
REMARK   71  A    between atoms: _151  and  _152
REMARK   72  A    between atoms: _151  and  _154
REMARK   73  A    between atoms: _154  and  _155
REMARK   74  A    between atoms: _158  and  _160
REMARK   75  A    between atoms: _160  and  _161
REMARK   76  A    between atoms: _160  and  _163
REMARK   77  A    between atoms: _166  and  _168
REMARK   78  A    between atoms: _168  and  _169
REMARK   79  A    between atoms: _172  and  _174
REMARK   80  A    between atoms: _174  and  _175
REMARK   81  A    between atoms: _174  and  _177
REMARK   82  A    between atoms: _177  and  _178
REMARK   83  A    between atoms: _180  and  _182
REMARK   84  A    between atoms: _182  and  _183
REMARK   85  A    between atoms: _182  and  _185
REMARK   86  A    between atoms: _185  and  _186
REMARK   87  A    between atoms: _189  and  _191
REMARK   88  A    between atoms: _191  and  _192
REMARK   89  A    between atoms: _191  and  _194
REMARK   90  A    between atoms: _194  and  _195
REMARK   91  A    between atoms: _198  and  _200
REMARK   92  A    between atoms: _200  and  _201
REMARK   93  A    between atoms: _200  and  _203
REMARK   94  A    between atoms: _203  and  _204
REMARK   95  A    between atoms: _209  and  _210
REMARK   96  A    between atoms: _212  and  _214
REMARK   97  A    between atoms: _214  and  _215
REMARK   98  A    between atoms: _214  and  _217
REMARK   99  A    between atoms: _220  and  _222
REMARK  100  A    between atoms: _222  and  _223
REMARK  101  A    between atoms: _222  and  _225
REMARK  102  A    between atoms: _225  and  _226
REMARK  103  A    between atoms: _232  and  _234
REMARK  104  A    between atoms: _234  and  _235
REMARK  105  A    between atoms: _234  and  _237
REMARK  106  A    between atoms: _239  and  _241
REMARK  107  A    between atoms: _241  and  _242
REMARK  108  A    between atoms: _241  and  _244
REMARK  109  A    between atoms: _246  and  _248
REMARK  110  A    between atoms: _248  and  _249
REMARK  111  A    between atoms: _251  and  _253
REMARK  112  A    between atoms: _253  and  _254
REMARK  113  A    between atoms: _253  and  _256
REMARK  114  A    between atoms: _256  and  _257
REMARK  115  A    between atoms: _259  and  _261
REMARK  116  A    between atoms: _261  and  _262
REMARK  117  A    between atoms: _261  and  _264
REMARK  118  A    between atoms: _264  and  _265
REMARK  119  A    between atoms: _271  and  _273
REMARK  120  A    between atoms: _273  and  _274
REMARK  121  A    between atoms: _273  and  _276
REMARK  122  A    between atoms: _276  and  _277
REMARK  123  A    between atoms: _281  and  _282
REMARK  124  A    between atoms: _287  and  _289
REMARK  125  A    between atoms: _289  and  _290
REMARK  126  A    between atoms: _289  and  _292
REMARK  127  A    between atoms: _295  and  _297
REMARK  128  A    between atoms: _297  and  _298
REMARK  129  A    between atoms: _297  and  _300
REMARK  130  A    between atoms: _300  and  _301
REMARK  131  A    between atoms: _303  and  _305
REMARK  132  A    between atoms: _305  and  _306
REMARK  133  A    between atoms: _309  and  _311
REMARK  134  A    between atoms: _311  and  _312
REMARK  135  A    between atoms: _311  and  _314
REMARK  136  A    between atoms: _317  and  _319
REMARK  137  A    between atoms: _319  and  _320
REMARK  138  A    between atoms: _319  and  _322
REMARK  139  A    between atoms: _322  and  _323
REMARK  140  A    between atoms: _325  and  _327
REMARK  141  A    between atoms: _327  and  _328
REMARK  142  A    between atoms: _327  and  _330
REMARK  143  A    between atoms: _330  and  _331
REMARK  144  A    between atoms: _333  and  _335
REMARK  145  A    between atoms: _335  and  _336
REMARK  146  A    between atoms: _335  and  _338
REMARK  147  A    between atoms: _338  and  _339
REMARK  148  A    between atoms: _344  and  _345
REMARK  149  A    between atoms: _348  and  _349
REMARK  150  A    between atoms: _354  and  _356
REMARK  151  A    between atoms: _356  and  _357
REMARK  152  A    between atoms: _356  and  _359
REMARK  153  A    between atoms: _362  and  _364
REMARK  154  A    between atoms: _364  and  _365
REMARK  155  A    between atoms: _364  and  _367
REMARK  156  A    between atoms: _367  and  _368
REMARK  157  A    between atoms: _370  and  _372
REMARK  158  A    between atoms: _372  and  _373
REMARK  159  A    between atoms: _372  and  _375
REMARK  160  A    between atoms: _375  and  _376
REMARK  161  A    between atoms: _382  and  _384
REMARK  162  A    between atoms: _384  and  _385
REMARK  163  A    between atoms: _384  and  _387
REMARK  164  A    between atoms: _387  and  _388
REMARK  165  A    between atoms: _391  and  _393
REMARK  166  A    between atoms: _393  and  _394
REMARK  167  A    between atoms: _393  and  _396
REMARK  168  A    between atoms: _396  and  _397
REMARK  169  A    between atoms: _397  and  _398
REMARK  170  A    between atoms: _398  and  _399
REMARK  171  A    between atoms: _399  and  _400
REMARK  172  A    between atoms: _404  and  _406
REMARK  173  A    between atoms: _406  and  _407
REMARK  174  A    between atoms: _406  and  _409
REMARK  175  A    between atoms: _409  and  _410
REMARK  176  A    between atoms: _415  and  _416
REMARK  177  A    between atoms: _418  and  _420
REMARK  178  A    between atoms: _420  and  _421
REMARK  179  A    between atoms: _420  and  _423
REMARK  180  A    between atoms: _425  and  _427
REMARK  181  A    between atoms: _427  and  _428
REMARK  182  A    between atoms: _427  and  _430
REMARK  183  A    between atoms: _430  and  _431
REMARK  184  A    between atoms: _434  and  _436
REMARK  185  A    between atoms: _436  and  _437
REMARK  186  A    between atoms: _436  and  _439
REMARK  187  A    between atoms: _439  and  _440
REMARK  188  A    between atoms: _446  and  _448
REMARK  189  A    between atoms: _448  and  _449
REMARK  190  A    between atoms: _448  and  _451
REMARK  191  A    between atoms: _454  and  _456
REMARK  192  A    between atoms: _456  and  _457
REMARK  193  A    between atoms: _456  and  _459
REMARK  194  A    between atoms: _459  and  _460
REMARK  195  A    between atoms: _463  and  _465
REMARK  196  A    between atoms: _465  and  _466
REMARK  197  A    between atoms: _465  and  _468
REMARK  198  A    between atoms: _468  and  _469
REMARK  199  A    between atoms: _471  and  _473
REMARK  200  A    between atoms: _473  and  _474
REMARK  201  A    between atoms: _473  and  _476
REMARK  202  A    between atoms: _476  and  _477
REMARK  203  A    between atoms: _480  and  _482
REMARK  204  A    between atoms: _482  and  _483
REMARK  205  A    between atoms: _486  and  _488
REMARK  206  A    between atoms: _488  and  _489
REMARK  207  A    between atoms: _488  and  _491
REMARK  208  A    between atoms: _491  and  _492
REMARK  209  A    between atoms: _495  and  _497
REMARK  210  A    between atoms: _497  and  _498
REMARK  211  A    between atoms: _497  and  _500
REMARK  212  A    between atoms: _500  and  _501
REMARK  213  A    between atoms: _501  and  _502
REMARK                            x       y       z     vdW  Elec       q    Type
REMARK                         _______ _______ _______ _____ _____    ______ ____
ROOT
ATOM      1  C   VAL A   2     -15.245 -31.885   4.565  0.00  0.00    +0.241 C 
ATOM      2  O   VAL A   2     -14.030 -31.972   4.881  0.00  0.00    -0.273 OA
ATOM      3  N   PHE A   3     -15.858 -30.724   4.391  0.00  0.00    -0.297 N 
ATOM      4  H   PHE A   3     -16.886 -30.705   4.232  0.00  0.00    +0.150 HD
ENDROOT
BRANCH   3   5
ATOM      5  CA  PHE A   3     -15.113 -29.475   4.420  0.00  0.00    +0.153 C 
BRANCH   5   6
ATOM      6  C   PHE A   3     -15.240 -28.680   5.692  0.00  0.00    +0.241 C 
ATOM      7  N   CYS A   4     -16.323 -28.854   6.424  0.00  0.00    -0.296 N 
ATOM      8  H   CYS A   4     -16.969 -29.636   6.196  0.00  0.00    +0.150 HD
ATOM      9  O   PHE A   3     -14.363 -27.861   5.984  0.00  0.00    -0.273 OA
BRANCH   7  10
ATOM     10  CA  CYS A   4     -16.639 -27.969   7.554  0.00  0.00    +0.160 C 
BRANCH  10  11
ATOM     11  C   CYS A   4     -17.446 -28.688   8.595  0.00  0.00    +0.242 C 
ATOM     12  N   CYS A   5     -17.268 -28.244   9.828  0.00  0.00    -0.297 N 
ATOM     13  H   CYS A   5     -16.642 -27.429   9.987  0.00  0.00    +0.150 HD
ATOM     14  O   CYS A   4     -18.168 -29.636   8.302  0.00  0.00    -0.273 OA
BRANCH  12  15
ATOM     15  CA  CYS A   5     -17.919 -28.860  10.957  0.00  0.00    +0.149 C 
BRANCH  15  16
ATOM     16  CB  CYS A   5     -17.181 -30.102  11.418  0.00  0.00    +0.096 C 
ATOM     17  SG  CYS A   5     -15.410 -29.941  11.727  0.00  0.00    -0.080 S 
ENDBRANCH  15  16
BRANCH  15  18
ATOM     18  C   CYS A   5     -18.063 -27.941  12.141  0.00  0.00    +0.228 C 
ATOM     19  O   CYS A   5     -17.289 -27.014  12.305  0.00  0.00    -0.286 OA
ENDBRANCH  15  18
ENDBRANCH  12  15
ENDBRANCH  10  11
BRANCH  10  20
ATOM     20  CB  CYS A   4     -17.380 -26.723   7.069  0.00  0.00    +0.098 C 
ATOM     21  SG  CYS A   4     -18.790 -27.022   5.970  0.00  0.00    -0.080 S 
ENDBRANCH  10  20
ENDBRANCH   7  10
ENDBRANCH   5   6
BRANCH   5  22
ATOM     22  CB  PHE A   3     -15.530 -28.543   3.268  0.00  0.00    +0.055 C 
BRANCH  22  23
ATOM     23  CG  PHE A   3     -15.107 -28.996   1.903  0.00  0.00    -0.020 A 
ATOM     24  CD2 PHE A   3     -13.849 -29.523   1.674  0.00  0.00    -0.004 A 
ATOM     25  CE2 PHE A   3     -13.456 -29.902   0.409  0.00  0.00    -0.000 A 
ATOM     26  CZ  PHE A   3     -14.275 -29.711  -0.642  0.00  0.00    -0.000 A 
ATOM     27  CE1 PHE A   3     -15.536 -29.158  -0.443  0.00  0.00    -0.000 A 
ATOM     28  CD1 PHE A   3     -15.935 -28.777   0.824  0.00  0.00    -0.004 A 
ENDBRANCH  22  23
ENDBRANCH   5  22
ENDBRANCH   3   5
BRANCH   1  29
ATOM     29  CA  VAL A   2     -16.069 -33.140   4.293  0.00  0.00    +0.148 C 
BRANCH  29  31
ATOM     30  C   TYR A   1     -15.686 -33.870   1.999  0.00  0.00    +0.239 C 
ATOM     31  N   VAL A   2     -15.354 -33.918   3.281  0.00  0.00    -0.297 N 
ATOM     32  H   VAL A   2     -14.563 -34.526   3.576  0.00  0.00    +0.150 HD
ATOM     33  O   TYR A   1     -16.669 -33.264   1.583  0.00  0.00    -0.274 OA
BRANCH  30  34
ATOM     34  CA  TYR A   1     -14.783 -34.585   1.030  0.00  0.00    +0.149 C 
BRANCH  34  35
ATOM     35  N   TYR A   1     -15.582 -35.339   0.036  0.00  0.00    -0.238 NA
ATOM     36  H   TYR A   1     -15.353 -35.242  -0.974  0.00  0.00    +0.142 HD
ENDBRANCH  34  35
BRANCH  34  37
ATOM     37  CB  TYR A   1     -13.927 -33.519   0.352  0.00  0.00    +0.053 C 
BRANCH  37  38
ATOM     38  CG  TYR A   1     -13.276 -33.953  -0.923  0.00  0.00    -0.020 A 
ATOM     39  CD2 TYR A   1     -12.361 -34.995  -0.933  0.00  0.00    -0.001 A 
ATOM     40  CE2 TYR A   1     -11.760 -35.404  -2.108  0.00  0.00    +0.036 A 
ATOM     41  CZ  TYR A   1     -12.084 -34.782  -3.285  0.00  0.00    +0.134 A 
ATOM     42  CE1 TYR A   1     -13.013 -33.761  -3.312  0.00  0.00    +0.036 A 
ATOM     43  CD1 TYR A   1     -13.610 -33.352  -2.128  0.00  0.00    -0.001 A 
BRANCH  41  44
ATOM     44  OH  TYR A   1     -11.485 -35.213  -4.452  0.00  0.00    -0.506 OA
ATOM     45  HH  TYR A   1     -10.852 -35.945  -4.245  0.00  0.00    +0.292 HD
ENDBRANCH  41  44
ENDBRANCH  37  38
ENDBRANCH  34  37
ENDBRANCH  30  34
ENDBRANCH  29  31
BRANCH  29  46
ATOM     46  CB  VAL A   2     -16.306 -33.926   5.564  0.00  0.00    +0.027 C 
ATOM     47  CG2 VAL A   2     -17.273 -33.181   6.465  0.00  0.00    +0.002 C 
ATOM     48  CG1 VAL A   2     -16.797 -35.351   5.258  0.00  0.00    +0.002 C 
ENDBRANCH  29  46
ENDBRANCH   1  29
TORSDOF 18
REMARK  Name = ../refined-set-2016/4ql1/4ql1_pocket.pdb
REMARK  213 active torsions:
REMARK  status: ('A' for Active; 'I' for Inactive)
REMARK    1  A    between atoms: _1  and  _3
REMARK    2  A    between atoms: _3  and  _4
REMARK    3  A    between atoms: _3  and  _6
REMARK    4  A    between atoms: _6  and  _7
REMARK    5  A    between atoms: _7  and  _8
REMARK    6  A    between atoms: _8  and  _9
REMARK    7  A    between atoms: _9  and  _10
REMARK    8  A    between atoms: _14  and  _16
REMARK    9  A    between atoms: _16  and  _17
REMARK   10  A    between atoms: _20  and  _22
REMARK   11  A    between atoms: _22  and  _23
REMARK   12  A    between atoms: _22  and  _25
REMARK   13  A    between atoms: _28  and  _30
REMARK   14  A    between atoms: _30  and  _31
REMARK   15  A    between atoms: _30  and  _33
REMARK   16  A    between atoms: _33  and  _34
REMARK   17  A    between atoms: _36  and  _38
REMARK   18  A    between atoms: _38  and  _39
REMARK   19  A    between atoms: _38  and  _41
REMARK   20  A    between atoms: _41  and  _42
REMARK   21  A    between atoms: _44  and  _46
REMARK   22  A    between atoms: _46  and  _47
REMARK   23  A    between atoms: _46  and  _49
REMARK   24  A    between atoms: _52  and  _54
REMARK   25  A    between atoms: _54  and  _55
REMARK   26  A    between atoms: _54  and  _57
REMARK   27  A    between atoms: _57  and  _58
REMARK   28  A    between atoms: _58  and  _59
REMARK   29  A    between atoms: _59  and  _60
REMARK   30  A    between atoms: _60  and  _61
REMARK   31  A    between atoms: _65  and  _67
REMARK   32  A    between atoms: _67  and  _68
REMARK   33  A    between atoms: _67  and  _70
REMARK   34  A    between atoms: _70  and  _71
REMARK   35  A    between atoms: _73  and  _75
REMARK   36  A    between atoms: _75  and  _76
REMARK   37  A    between atoms: _75  and  _78
REMARK   38  A    between atoms: _78  and  _79
REMARK   39  A    between atoms: _81  and  _83
REMARK   40  A    between atoms: _83  and  _84
REMARK   41  A    between atoms: _87  and  _89
REMARK   42  A    between atoms: _89  and  _90
REMARK   43  A    between atoms: _89  and  _92
REMARK   44  A    between atoms: _92  and  _93
REMARK   45  A    between atoms: _96  and  _98
REMARK   46  A    between atoms: _98  and  _99
REMARK   47  A    between atoms: _98  and  _101
REMARK   48  A    between atoms: _101  and  _102
REMARK   49  A    between atoms: _102  and  _103
REMARK   50  A    between atoms: _103  and  _104
REMARK   51  A    between atoms: _104  and  _105
REMARK   52  A    between atoms: _109  and  _111
REMARK   53  A    between atoms: _111  and  _112
REMARK   54  A    between atoms: _111  and  _114
REMARK   55  A    between atoms: _114  and  _115
REMARK   56  A    between atoms: _118  and  _120
REMARK   57  A    between atoms: _120  and  _121
REMARK   58  A    between atoms: _120  and  _123
REMARK   59  A    between atoms: _123  and  _124
REMARK   60  A    between atoms: _127  and  _129
REMARK   61  A    between atoms: _129  and  _130
REMARK   62  A    between atoms: _132  and  _134
REMARK   63  A    between atoms: _134  and  _135
REMARK   64  A    between atoms: _134  and  _137
REMARK   65  A    between atoms: _137  and  _138
REMARK   66  A    between atoms: _141  and  _143
REMARK   67  A    between atoms: _143  and  _144
REMARK   68  A    between atoms: _143  and  _146
REMARK   69  A    between atoms: _146  and  _147
REMARK   70  A    between atoms: _149  and  _151
REMARK   71  A    between atoms: _151  and  _152
REMARK   72  A    between atoms: _151  and  _154
REMARK   73  A    between atoms: _154  and  _155
REMARK   74  A    between atoms: _158  and  _160
REMARK   75  A    between atoms: _160  and  _161
REMARK   76  A    between atoms: _160  and  _163
REMARK   77  A    between atoms: _166  and  _168
REMARK   78  A    between atoms: _168  and  _169
REMARK   79  A    between atoms: _172  and  _174
REMARK   80  A    between atoms: _174  and  _175
REMARK   81  A    between atoms: _174  and  _177
REMARK   82  A    between atoms: _177  and  _178
REMARK   83  A    between atoms: _180  and  _182
REMARK   84  A    between atoms: _182  and  _183
REMARK   85  A    between atoms: _182  and  _185
REMARK   86  A    between atoms: _185  and  _186
REMARK   87  A    between atoms: _189  and  _191
REMARK   88  A    between atoms: _191  and  _192
REMARK   89  A    between atoms: _191  and  _194
REMARK   90  A    between atoms: _194  and  _195
REMARK   91  A    between atoms: _198  and  _200
REMARK   92  A    between atoms: _200  and  _201
REMARK   93  A    between atoms: _200  and  _203
REMARK   94  A    between atoms: _203  and  _204
REMARK   95  A    between atoms: _209  and  _210
REMARK   96  A    between atoms: _212  and  _214
REMARK   97  A    between atoms: _214  and  _215
REMARK   98  A    between atoms: _214  and  _217
REMARK   99  A    between atoms: _220  and  _222
REMARK  100  A    between atoms: _222  and  _223
REMARK  101  A    between atoms: _222  and  _225
REMARK  102  A    between atoms: _225  and  _226
REMARK  103  A    between atoms: _232  and  _234
REMARK  104  A    between atoms: _234  and  _235
REMARK  105  A    between atoms: _234  and  _237
REMARK  106  A    between atoms: _239  and  _241
REMARK  107  A    between atoms: _241  and  _242
REMARK  108  A    between atoms: _241  and  _244
REMARK  109  A    between atoms: _246  and  _248
REMARK  110  A    between atoms: _248  and  _249
REMARK  111  A    between atoms: _251  and  _253
REMARK  112  A    between atoms: _253  and  _254
REMARK  113  A    between atoms: _253  and  _256
REMARK  114  A    between atoms: _256  and  _257
REMARK  115  A    between atoms: _259  and  _261
REMARK  116  A    between atoms: _261  and  _262
REMARK  117  A    between atoms: _261  and  _264
REMARK  118  A    between atoms: _264  and  _265
REMARK  119  A    between atoms: _271  and  _273
REMARK  120  A    between atoms: _273  and  _274
REMARK  121  A    between atoms: _273  and  _276
REMARK  122  A    between atoms: _276  and  _277
REMARK  123  A    between atoms: _281  and  _282
REMARK  124  A    between atoms: _287  and  _289
REMARK  125  A    between atoms: _289  and  _290
REMARK  126  A    between atoms: _289  and  _292
REMARK  127  A    between atoms: _295  and  _297
REMARK  128  A    between atoms: _297  and  _298
REMARK  129  A    between atoms: _297  and  _300
REMARK  130  A    between atoms: _300  and  _301
REMARK  131  A    between atoms: _303  and  _305
REMARK  132  A    between atoms: _305  and  _306
REMARK  133  A    between atoms: _309  and  _311
REMARK  134  A    between atoms: _311  and  _312
REMARK  135  A    between atoms: _311  and  _314
REMARK  136  A    between atoms: _317  and  _319
REMARK  137  A    between atoms: _319  and  _320
REMARK  138  A    between atoms: _319  and  _322
REMARK  139  A    between atoms: _322  and  _323
REMARK  140  A    between atoms: _325  and  _327
REMARK  141  A    between atoms: _327  and  _328
REMARK  142  A    between atoms: _327  and  _330
REMARK  143  A    between atoms: _330  and  _331
REMARK  144  A    between atoms: _333  and  _335
REMARK  145  A    between atoms: _335  and  _336
REMARK  146  A    between atoms: _335  and  _338
REMARK  147  A    between atoms: _338  and  _339
REMARK  148  A    between atoms: _344  and  _345
REMARK  149  A    between atoms: _348  and  _349
REMARK  150  A    between atoms: _354  and  _356
REMARK  151  A    between atoms: _356  and  _357
REMARK  152  A    between atoms: _356  and  _359
REMARK  153  A    between atoms: _362  and  _364
REMARK  154  A    between atoms: _364  and  _365
REMARK  155  A    between atoms: _364  and  _367
REMARK  156  A    between atoms: _367  and  _368
REMARK  157  A    between atoms: _370  and  _372
REMARK  158  A    between atoms: _372  and  _373
REMARK  159  A    between atoms: _372  and  _375
REMARK  160  A    between atoms: _375  and  _376
REMARK  161  A    between atoms: _382  and  _384
REMARK  162  A    between atoms: _384  and  _385
REMARK  163  A    between atoms: _384  and  _387
REMARK  164  A    between atoms: _387  and  _388
REMARK  165  A    between atoms: _391  and  _393
REMARK  166  A    between atoms: _393  and  _394
REMARK  167  A    between atoms: _393  and  _396
REMARK  168  A    between atoms: _396  and  _397
REMARK  169  A    between atoms: _397  and  _398
REMARK  170  A    between atoms: _398  and  _399
REMARK  171  A    between atoms: _399  and  _400
REMARK  172  A    between atoms: _404  and  _406
REMARK  173  A    between atoms: _406  and  _407
REMARK  174  A    between atoms: _406  and  _409
REMARK  175  A    between atoms: _409  and  _410
REMARK  176  A    between atoms: _415  and  _416
REMARK  177  A    between atoms: _418  and  _420
REMARK  178  A    between atoms: _420  and  _421
REMARK  179  A    between atoms: _420  and  _423
REMARK  180  A    between atoms: _425  and  _427
REMARK  181  A    between atoms: _427  and  _428
REMARK  182  A    between atoms: _427  and  _430
REMARK  183  A    between atoms: _430  and  _431
REMARK  184  A    between atoms: _434  and  _436
REMARK  185  A    between atoms: _436  and  _437
REMARK  186  A    between atoms: _436  and  _439
REMARK  187  A    between atoms: _439  and  _440
REMARK  188  A    between atoms: _446  and  _448
REMARK  189  A    between atoms: _448  and  _449
REMARK  190  A    between atoms: _448  and  _451
REMARK  191  A    between atoms: _454  and  _456
REMARK  192  A    between atoms: _456  and  _457
REMARK  193  A    between atoms: _456  and  _459
REMARK  194  A    between atoms: _459  and  _460
REMARK  195  A    between atoms: _463  and  _465
REMARK  196  A    between atoms: _465  and  _466
REMARK  197  A    between atoms: _465  and  _468
REMARK  198  A    between atoms: _468  and  _469
REMARK  199  A    between atoms: _471  and  _473
REMARK  200  A    between atoms: _473  and  _474
REMARK  201  A    between atoms: _473  and  _476
REMARK  202  A    between atoms: _476  and  _477
REMARK  203  A    between atoms: _480  and  _482
REMARK  204  A    between atoms: _482  and  _483
REMARK  205  A    between atoms: _486  and  _488
REMARK  206  A    between atoms: _488  and  _489
REMARK  207  A    between atoms: _488  and  _491
REMARK  208  A    between atoms: _491  and  _492
REMARK  209  A    between atoms: _495  and  _497
REMARK  210  A    between atoms: _497  and  _498
REMARK  211  A    between atoms: _497  and  _500
REMARK  212  A    between atoms: _500  and  _501
REMARK  213  A    between atoms: _501  and  _502
REMARK                            x       y       z     vdW  Elec       q    Type
REMARK                         _______ _______ _______ _____ _____    ______ ____
ROOT
ATOM      1  C   SER A   2     -19.500 -31.140   0.764  0.00  0.00    +0.243 C 
ATOM      2  O   SER A   2     -20.431 -30.512   0.295  0.00  0.00    -0.273 OA
ATOM      3  N   PHE A   3     -18.457 -31.506   0.038  0.00  0.00    -0.298 N 
ATOM      4  H   PHE A   3     -17.606 -31.855   0.523  0.00  0.00    +0.150 HD
ENDROOT
BRANCH   1   5
ATOM      5  CA  SER A   2     -19.451 -31.601   2.208  0.00  0.00    +0.178 C 
BRANCH   5   8
ATOM      6  C   GLY A   1     -19.870 -30.446   4.309  0.00  0.00    +0.240 C 
ATOM      7  O   GLY A   1     -18.669 -30.467   4.673  0.00  0.00    -0.274 OA
ATOM      8  N   SER A   2     -20.284 -30.831   3.109  0.00  0.00    -0.295 N 
ATOM      9  H   SER A   2     -21.243 -30.570   2.803  0.00  0.00    +0.150 HD
BRANCH   6  10
ATOM     10  CA  GLY A   1     -20.946 -29.885   5.182  0.00  0.00    +0.169 C 
BRANCH  10  11
ATOM     11  N   GLY A   1     -20.668 -30.130   6.581  0.00  0.00    -0.236 NA
ATOM     12  H   GLY A   1     -19.720 -29.911   6.949  0.00  0.00    +0.142 HD
ENDBRANCH  10  11
ENDBRANCH   6  10
ENDBRANCH   5   8
BRANCH   5  13
ATOM     13  CB  SER A   2     -19.889 -33.074   2.306  0.00  0.00    +0.166 C 
BRANCH  13  14
ATOM     14  OG  SER A   2     -19.250 -33.950   1.387  0.00  0.00    -0.380 OA
ATOM     15  H   SER A   2     -18.272 -33.932   1.541  0.00  0.00    +0.211 HD
ENDBRANCH  13  14
ENDBRANCH   5  13
ENDBRANCH   1   5
BRANCH   3  16
ATOM     16  CA  PHE A   3     -18.457 -31.438  -1.420  0.00  0.00    +0.141 C 
BRANCH  16  17
ATOM     17  C   PHE A   3     -19.667 -32.146  -2.032  0.00  0.00    +0.227 C 
ATOM     18  O   PHE A   3     -20.137 -31.746  -3.108  0.00  0.00    -0.286 OA
ENDBRANCH  16  17
BRANCH  16  19
ATOM     19  CB  PHE A   3     -17.146 -32.059  -1.939  0.00  0.00    +0.054 C 
BRANCH  19  20
ATOM     20  CG  PHE A   3     -16.897 -31.842  -3.409  0.00  0.00    -0.020 A 
ATOM     21  CD2 PHE A   3     -16.172 -30.749  -3.858  0.00  0.00    -0.004 A 
ATOM     22  CE2 PHE A   3     -15.932 -30.567  -5.215  0.00  0.00    -0.000 A 
ATOM     23  CZ  PHE A   3     -16.439 -31.476  -6.132  0.00  0.00    -0.000 A 
ATOM     24  CE1 PHE A   3     -17.160 -32.580  -5.697  0.00  0.00    -0.000 A 
ATOM     25  CD1 PHE A   3     -17.402 -32.744  -4.342  0.00  0.00    -0.004 A 
ENDBRANCH  19  20
ENDBRANCH  16  19
ENDBRANCH   3  16
TORSDOF 10
REMARK  Name = ../refined-set-2016/4ql1/4ql1_pocket.pdb
REMARK  213 active torsions:
REMARK  status: ('A' for Active; 'I' for Inactive)
REMARK    1  A    between atoms: _1  and  _3
REMARK    2  A    between atoms: _3  and  _4
REMARK    3  A    between atoms: _3  and  _6
REMARK    4  A    between atoms: _6  and  _7
REMARK    5  A    between atoms: _7  and  _8
REMARK    6  A    between atoms: _8  and  _9
REMARK    7  A    between atoms: _9  and  _10
REMARK    8  A    between atoms: _14  and  _16
REMARK    9  A    between atoms: _16  and  _17
REMARK   10  A    between atoms: _20  and  _22
REMARK   11  A    between atoms: _22  and  _23
REMARK   12  A    between atoms: _22  and  _25
REMARK   13  A    between atoms: _28  and  _30
REMARK   14  A    between atoms: _30  and  _31
REMARK   15  A    between atoms: _30  and  _33
REMARK   16  A    between atoms: _33  and  _34
REMARK   17  A    between atoms: _36  and  _38
REMARK   18  A    between atoms: _38  and  _39
REMARK   19  A    between atoms: _38  and  _41
REMARK   20  A    between atoms: _41  and  _42
REMARK   21  A    between atoms: _44  and  _46
REMARK   22  A    between atoms: _46  and  _47
REMARK   23  A    between atoms: _46  and  _49
REMARK   24  A    between atoms: _52  and  _54
REMARK   25  A    between atoms: _54  and  _55
REMARK   26  A    between atoms: _54  and  _57
REMARK   27  A    between atoms: _57  and  _58
REMARK   28  A    between atoms: _58  and  _59
REMARK   29  A    between atoms: _59  and  _60
REMARK   30  A    between atoms: _60  and  _61
REMARK   31  A    between atoms: _65  and  _67
REMARK   32  A    between atoms: _67  and  _68
REMARK   33  A    between atoms: _67  and  _70
REMARK   34  A    between atoms: _70  and  _71
REMARK   35  A    between atoms: _73  and  _75
REMARK   36  A    between atoms: _75  and  _76
REMARK   37  A    between atoms: _75  and  _78
REMARK   38  A    between atoms: _78  and  _79
REMARK   39  A    between atoms: _81  and  _83
REMARK   40  A    between atoms: _83  and  _84
REMARK   41  A    between atoms: _87  and  _89
REMARK   42  A    between atoms: _89  and  _90
REMARK   43  A    between atoms: _89  and  _92
REMARK   44  A    between atoms: _92  and  _93
REMARK   45  A    between atoms: _96  and  _98
REMARK   46  A    between atoms: _98  and  _99
REMARK   47  A    between atoms: _98  and  _101
REMARK   48  A    between atoms: _101  and  _102
REMARK   49  A    between atoms: _102  and  _103
REMARK   50  A    between atoms: _103  and  _104
REMARK   51  A    between atoms: _104  and  _105
REMARK   52  A    between atoms: _109  and  _111
REMARK   53  A    between atoms: _111  and  _112
REMARK   54  A    between atoms: _111  and  _114
REMARK   55  A    between atoms: _114  and  _115
REMARK   56  A    between atoms: _118  and  _120
REMARK   57  A    between atoms: _120  and  _121
REMARK   58  A    between atoms: _120  and  _123
REMARK   59  A    between atoms: _123  and  _124
REMARK   60  A    between atoms: _127  and  _129
REMARK   61  A    between atoms: _129  and  _130
REMARK   62  A    between atoms: _132  and  _134
REMARK   63  A    between atoms: _134  and  _135
REMARK   64  A    between atoms: _134  and  _137
REMARK   65  A    between atoms: _137  and  _138
REMARK   66  A    between atoms: _141  and  _143
REMARK   67  A    between atoms: _143  and  _144
REMARK   68  A    between atoms: _143  and  _146
REMARK   69  A    between atoms: _146  and  _147
REMARK   70  A    between atoms: _149  and  _151
REMARK   71  A    between atoms: _151  and  _152
REMARK   72  A    between atoms: _151  and  _154
REMARK   73  A    between atoms: _154  and  _155
REMARK   74  A    between atoms: _158  and  _160
REMARK   75  A    between atoms: _160  and  _161
REMARK   76  A    between atoms: _160  and  _163
REMARK   77  A    between atoms: _166  and  _168
REMARK   78  A    between atoms: _168  and  _169
REMARK   79  A    between atoms: _172  and  _174
REMARK   80  A    between atoms: _174  and  _175
REMARK   81  A    between atoms: _174  and  _177
REMARK   82  A    between atoms: _177  and  _178
REMARK   83  A    between atoms: _180  and  _182
REMARK   84  A    between atoms: _182  and  _183
REMARK   85  A    between atoms: _182  and  _185
REMARK   86  A    between atoms: _185  and  _186
REMARK   87  A    between atoms: _189  and  _191
REMARK   88  A    between atoms: _191  and  _192
REMARK   89  A    between atoms: _191  and  _194
REMARK   90  A    between atoms: _194  and  _195
REMARK   91  A    between atoms: _198  and  _200
REMARK   92  A    between atoms: _200  and  _201
REMARK   93  A    between atoms: _200  and  _203
REMARK   94  A    between atoms: _203  and  _204
REMARK   95  A    between atoms: _209  and  _210
REMARK   96  A    between atoms: _212  and  _214
REMARK   97  A    between atoms: _214  and  _215
REMARK   98  A    between atoms: _214  and  _217
REMARK   99  A    between atoms: _220  and  _222
REMARK  100  A    between atoms: _222  and  _223
REMARK  101  A    between atoms: _222  and  _225
REMARK  102  A    between atoms: _225  and  _226
REMARK  103  A    between atoms: _232  and  _234
REMARK  104  A    between atoms: _234  and  _235
REMARK  105  A    between atoms: _234  and  _237
REMARK  106  A    between atoms: _239  and  _241
REMARK  107  A    between atoms: _241  and  _242
REMARK  108  A    between atoms: _241  and  _244
REMARK  109  A    between atoms: _246  and  _248
REMARK  110  A    between atoms: _248  and  _249
REMARK  111  A    between atoms: _251  and  _253
REMARK  112  A    between atoms: _253  and  _254
REMARK  113  A    between atoms: _253  and  _256
REMARK  114  A    between atoms: _256  and  _257
REMARK  115  A    between atoms: _259  and  _261
REMARK  116  A    between atoms: _261  and  _262
REMARK  117  A    between atoms: _261  and  _264
REMARK  118  A    between atoms: _264  and  _265
REMARK  119  A    between atoms: _271  and  _273
REMARK  120  A    between atoms: _273  and  _274
REMARK  121  A    between atoms: _273  and  _276
REMARK  122  A    between atoms: _276  and  _277
REMARK  123  A    between atoms: _281  and  _282
REMARK  124  A    between atoms: _287  and  _289
REMARK  125  A    between atoms: _289  and  _290
REMARK  126  A    between atoms: _289  and  _292
REMARK  127  A    between atoms: _295  and  _297
REMARK  128  A    between atoms: _297  and  _298
REMARK  129  A    between atoms: _297  and  _300
REMARK  130  A    between atoms: _300  and  _301
REMARK  131  A    between atoms: _303  and  _305
REMARK  132  A    between atoms: _305  and  _306
REMARK  133  A    between atoms: _309  and  _311
REMARK  134  A    between atoms: _311  and  _312
REMARK  135  A    between atoms: _311  and  _314
REMARK  136  A    between atoms: _317  and  _319
REMARK  137  A    between atoms: _319  and  _320
REMARK  138  A    between atoms: _319  and  _322
REMARK  139  A    between atoms: _322  and  _323
REMARK  140  A    between atoms: _325  and  _327
REMARK  141  A    between atoms: _327  and  _328
REMARK  142  A    between atoms: _327  and  _330
REMARK  143  A    between atoms: _330  and  _331
REMARK  144  A    between atoms: _333  and  _335
REMARK  145  A    between atoms: _335  and  _336
REMARK  146  A    between atoms: _335  and  _338
REMARK  147  A    between atoms: _338  and  _339
REMARK  148  A    between atoms: _344  and  _345
REMARK  149  A    between atoms: _348  and  _349
REMARK  150  A    between atoms: _354  and  _356
REMARK  151  A    between atoms: _356  and  _357
REMARK  152  A    between atoms: _356  and  _359
REMARK  153  A    between atoms: _362  and  _364
REMARK  154  A    between atoms: _364  and  _365
REMARK  155  A    between atoms: _364  and  _367
REMARK  156  A    between atoms: _367  and  _368
REMARK  157  A    between atoms: _370  and  _372
REMARK  158  A    between atoms: _372  and  _373
REMARK  159  A    between atoms: _372  and  _375
REMARK  160  A    between atoms: _375  and  _376
REMARK  161  A    between atoms: _382  and  _384
REMARK  162  A    between atoms: _384  and  _385
REMARK  163  A    between atoms: _384  and  _387
REMARK  164  A    between atoms: _387  and  _388
REMARK  165  A    between atoms: _391  and  _393
REMARK  166  A    between atoms: _393  and  _394
REMARK  167  A    between atoms: _393  and  _396
REMARK  168  A    between atoms: _396  and  _397
REMARK  169  A    between atoms: _397  and  _398
REMARK  170  A    between atoms: _398  and  _399
REMARK  171  A    between atoms: _399  and  _400
REMARK  172  A    between atoms: _404  and  _406
REMARK  173  A    between atoms: _406  and  _407
REMARK  174  A    between atoms: _406  and  _409
REMARK  175  A    between atoms: _409  and  _410
REMARK  176  A    between atoms: _415  and  _416
REMARK  177  A    between atoms: _418  and  _420
REMARK  178  A    between atoms: _420  and  _421
REMARK  179  A    between atoms: _420  and  _423
REMARK  180  A    between atoms: _425  and  _427
REMARK  181  A    between atoms: _427  and  _428
REMARK  182  A    between atoms: _427  and  _430
REMARK  183  A    between atoms: _430  and  _431
REMARK  184  A    between atoms: _434  and  _436
REMARK  185  A    between atoms: _436  and  _437
REMARK  186  A    between atoms: _436  and  _439
REMARK  187  A    between atoms: _439  and  _440
REMARK  188  A    between atoms: _446  and  _448
REMARK  189  A    between atoms: _448  and  _449
REMARK  190  A    between atoms: _448  and  _451
REMARK  191  A    between atoms: _454  and  _456
REMARK  192  A    between atoms: _456  and  _457
REMARK  193  A    between atoms: _456  and  _459
REMARK  194  A    between atoms: _459  and  _460
REMARK  195  A    between atoms: _463  and  _465
REMARK  196  A    between atoms: _465  and  _466
REMARK  197  A    between atoms: _465  and  _468
REMARK  198  A    between atoms: _468  and  _469
REMARK  199  A    between atoms: _471  and  _473
REMARK  200  A    between atoms: _473  and  _474
REMARK  201  A    between atoms: _473  and  _476
REMARK  202  A    between atoms: _476  and  _477
REMARK  203  A    between atoms: _480  and  _482
REMARK  204  A    between atoms: _482  and  _483
REMARK  205  A    between atoms: _486  and  _488
REMARK  206  A    between atoms: _488  and  _489
REMARK  207  A    between atoms: _488  and  _491
REMARK  208  A    between atoms: _491  and  _492
REMARK  209  A    between atoms: _495  and  _497
REMARK  210  A    between atoms: _497  and  _498
REMARK  211  A    between atoms: _497  and  _500
REMARK  212  A    between atoms: _500  and  _501
REMARK  213  A    between atoms: _501  and  _502
REMARK                            x       y       z     vdW  Elec       q    Type
REMARK                         _______ _______ _______ _____ _____    ______ ____
ROOT
ATOM      1  C   VAL A   3     -19.680 -26.219   1.733  0.00  0.00    +0.241 C 
ATOM      2  O   VAL A   3     -18.816 -27.071   2.031  0.00  0.00    -0.273 OA
ATOM      3  N   SER A   4     -19.505 -24.910   1.916  0.00  0.00    -0.295 N 
ATOM      4  H   SER A   4     -20.299 -24.264   1.731  0.00  0.00    +0.150 HD
ENDROOT
BRANCH   3   5
ATOM      5  CA  SER A   4     -18.222 -24.352   2.372  0.00  0.00    +0.178 C 
BRANCH   5   6
ATOM      6  C   SER A   4     -18.153 -24.107   3.881  0.00  0.00    +0.243 C 
ATOM      7  N   ALA A   5     -19.299 -23.888   4.518  0.00  0.00    -0.297 N 
ATOM      8  H   ALA A   5     -20.185 -23.945   3.977  0.00  0.00    +0.150 HD
ATOM      9  O   SER A   4     -17.061 -24.051   4.447  0.00  0.00    -0.273 OA
BRANCH   7  10
ATOM     10  CA  ALA A   5     -19.373 -23.569   5.950  0.00  0.00    +0.149 C 
ATOM     11  CB  ALA A   5     -19.122 -22.077   6.190  0.00  0.00    +0.031 C 
BRANCH  10  12
ATOM     12  C   ALA A   5     -20.708 -23.954   6.533  0.00  0.00    +0.241 C 
ATOM     13  N   VAL A   6     -20.689 -24.358   7.801  0.00  0.00    -0.298 N 
ATOM     14  H   VAL A   6     -19.761 -24.468   8.257  0.00  0.00    +0.150 HD
ATOM     15  O   ALA A   5     -21.725 -23.900   5.853  0.00  0.00    -0.273 OA
BRANCH  13  16
ATOM     16  CA  VAL A   6     -21.883 -24.661   8.605  0.00  0.00    +0.137 C 
BRANCH  16  17
ATOM     17  CB  VAL A   6     -22.197 -26.181   8.664  0.00  0.00    +0.026 C 
ATOM     18  CG2 VAL A   6     -20.973 -26.944   9.146  0.00  0.00    +0.002 C 
ATOM     19  CG1 VAL A   6     -22.691 -26.672   7.317  0.00  0.00    +0.002 C 
ENDBRANCH  16  17
BRANCH  16  20
ATOM     20  C   VAL A   6     -21.664 -24.150  10.035  0.00  0.00    +0.227 C 
ATOM     21  O   VAL A   6     -20.546 -24.243  10.583  0.00  0.00    -0.286 OA
ENDBRANCH  16  20
ENDBRANCH  13  16
ENDBRANCH  10  12
ENDBRANCH   7  10
ENDBRANCH   5   6
BRANCH   5  22
ATOM     22  CB  SER A   4     -17.946 -23.031   1.658  0.00  0.00    +0.166 C 
BRANCH  22  23
ATOM     23  OG  SER A   4     -19.089 -22.184   1.713  0.00  0.00    -0.380 OA
ATOM     24  H   SER A   4     -18.891 -21.334   1.246  0.00  0.00    +0.211 HD
ENDBRANCH  22  23
ENDBRANCH   5  22
ENDBRANCH   3   5
BRANCH   1  25
ATOM     25  CA  VAL A   3     -20.994 -26.656   1.081  0.00  0.00    +0.149 C 
BRANCH  25  27
ATOM     26  C   PRO A   2     -20.574 -26.906  -1.343  0.00  0.00    +0.241 C 
ATOM     27  N   VAL A   3     -20.701 -27.452  -0.129  0.00  0.00    -0.297 N 
ATOM     28  H   VAL A   3     -20.589 -28.481  -0.032  0.00  0.00    +0.150 HD
ATOM     29  O   PRO A   2     -20.713 -25.689  -1.574  0.00  0.00    -0.273 OA
BRANCH  26  33
ATOM     30  C   ASP A   1     -22.198 -27.545  -3.758  0.00  0.00    +0.242 C 
ATOM     31  O   ASP A   1     -22.878 -27.583  -2.740  0.00  0.00    -0.273 OA
ATOM     32  N   PRO A   2     -20.857 -27.668  -3.734  0.00  0.00    -0.272 N 
ATOM     33  CA  PRO A   2     -20.222 -27.902  -2.461  0.00  0.00    +0.152 C 
ATOM     34  CB  PRO A   2     -18.741 -27.795  -2.806  0.00  0.00    +0.031 C 
ATOM     35  CG  PRO A   2     -18.651 -28.347  -4.190  0.00  0.00    +0.024 C 
ATOM     36  CD  PRO A   2     -19.914 -27.871  -4.860  0.00  0.00    +0.094 C 
BRANCH  30  37
ATOM     37  CA  ASP A   1     -22.880 -27.374  -5.113  0.00  0.00    +0.156 C 
BRANCH  37  38
ATOM     38  N   ASP A   1     -24.332 -27.440  -4.890  0.00  0.00    -0.238 NA
ATOM     39  H   ASP A   1     -24.679 -27.307  -3.919  0.00  0.00    +0.142 HD
ENDBRANCH  37  38
BRANCH  37  40
ATOM     40  CB  ASP A   1     -22.498 -26.032  -5.729  0.00  0.00    +0.140 C 
BRANCH  40  41
ATOM     41  CG  ASP A   1     -22.545 -26.034  -7.232  0.00  0.00    +0.367 C 
ATOM     42  OD2 ASP A   1     -23.167 -25.097  -7.797  0.00  0.00    -0.246 OA
ATOM     43  OD1 ASP A   1     -21.913 -26.923  -7.838  0.00  0.00    -0.246 OA
ENDBRANCH  40  41
ENDBRANCH  37  40
ENDBRANCH  30  37
ENDBRANCH  26  33
ENDBRANCH  25  27
BRANCH  25  44
ATOM     44  CB  VAL A   3     -21.832 -27.488   2.069  0.00  0.00    +0.027 C 
ATOM     45  CG2 VAL A   3     -22.166 -26.704   3.332  0.00  0.00    +0.002 C 
ATOM     46  CG1 VAL A   3     -23.109 -27.962   1.408  0.00  0.00    +0.002 C 
ENDBRANCH  25  44
ENDBRANCH   1  25
TORSDOF 17
REMARK  Name = ../refined-set-2016/4ql1/4ql1_pocket.pdb
REMARK  213 active torsions:
REMARK  status: ('A' for Active; 'I' for Inactive)
REMARK    1  A    between atoms: _1  and  _3
REMARK    2  A    between atoms: _3  and  _4
REMARK    3  A    between atoms: _3  and  _6
REMARK    4  A    between atoms: _6  and  _7
REMARK    5  A    between atoms: _7  and  _8
REMARK    6  A    between atoms: _8  and  _9
REMARK    7  A    between atoms: _9  and  _10
REMARK    8  A    between atoms: _14  and  _16
REMARK    9  A    between atoms: _16  and  _17
REMARK   10  A    between atoms: _20  and  _22
REMARK   11  A    between atoms: _22  and  _23
REMARK   12  A    between atoms: _22  and  _25
REMARK   13  A    between atoms: _28  and  _30
REMARK   14  A    between atoms: _30  and  _31
REMARK   15  A    between atoms: _30  and  _33
REMARK   16  A    between atoms: _33  and  _34
REMARK   17  A    between atoms: _36  and  _38
REMARK   18  A    between atoms: _38  and  _39
REMARK   19  A    between atoms: _38  and  _41
REMARK   20  A    between atoms: _41  and  _42
REMARK   21  A    between atoms: _44  and  _46
REMARK   22  A    between atoms: _46  and  _47
REMARK   23  A    between atoms: _46  and  _49
REMARK   24  A    between atoms: _52  and  _54
REMARK   25  A    between atoms: _54  and  _55
REMARK   26  A    between atoms: _54  and  _57
REMARK   27  A    between atoms: _57  and  _58
REMARK   28  A    between atoms: _58  and  _59
REMARK   29  A    between atoms: _59  and  _60
REMARK   30  A    between atoms: _60  and  _61
REMARK   31  A    between atoms: _65  and  _67
REMARK   32  A    between atoms: _67  and  _68
REMARK   33  A    between atoms: _67  and  _70
REMARK   34  A    between atoms: _70  and  _71
REMARK   35  A    between atoms: _73  and  _75
REMARK   36  A    between atoms: _75  and  _76
REMARK   37  A    between atoms: _75  and  _78
REMARK   38  A    between atoms: _78  and  _79
REMARK   39  A    between atoms: _81  and  _83
REMARK   40  A    between atoms: _83  and  _84
REMARK   41  A    between atoms: _87  and  _89
REMARK   42  A    between atoms: _89  and  _90
REMARK   43  A    between atoms: _89  and  _92
REMARK   44  A    between atoms: _92  and  _93
REMARK   45  A    between atoms: _96  and  _98
REMARK   46  A    between atoms: _98  and  _99
REMARK   47  A    between atoms: _98  and  _101
REMARK   48  A    between atoms: _101  and  _102
REMARK   49  A    between atoms: _102  and  _103
REMARK   50  A    between atoms: _103  and  _104
REMARK   51  A    between atoms: _104  and  _105
REMARK   52  A    between atoms: _109  and  _111
REMARK   53  A    between atoms: _111  and  _112
REMARK   54  A    between atoms: _111  and  _114
REMARK   55  A    between atoms: _114  and  _115
REMARK   56  A    between atoms: _118  and  _120
REMARK   57  A    between atoms: _120  and  _121
REMARK   58  A    between atoms: _120  and  _123
REMARK   59  A    between atoms: _123  and  _124
REMARK   60  A    between atoms: _127  and  _129
REMARK   61  A    between atoms: _129  and  _130
REMARK   62  A    between atoms: _132  and  _134
REMARK   63  A    between atoms: _134  and  _135
REMARK   64  A    between atoms: _134  and  _137
REMARK   65  A    between atoms: _137  and  _138
REMARK   66  A    between atoms: _141  and  _143
REMARK   67  A    between atoms: _143  and  _144
REMARK   68  A    between atoms: _143  and  _146
REMARK   69  A    between atoms: _146  and  _147
REMARK   70  A    between atoms: _149  and  _151
REMARK   71  A    between atoms: _151  and  _152
REMARK   72  A    between atoms: _151  and  _154
REMARK   73  A    between atoms: _154  and  _155
REMARK   74  A    between atoms: _158  and  _160
REMARK   75  A    between atoms: _160  and  _161
REMARK   76  A    between atoms: _160  and  _163
REMARK   77  A    between atoms: _166  and  _168
REMARK   78  A    between atoms: _168  and  _169
REMARK   79  A    between atoms: _172  and  _174
REMARK   80  A    between atoms: _174  and  _175
REMARK   81  A    between atoms: _174  and  _177
REMARK   82  A    between atoms: _177  and  _178
REMARK   83  A    between atoms: _180  and  _182
REMARK   84  A    between atoms: _182  and  _183
REMARK   85  A    between atoms: _182  and  _185
REMARK   86  A    between atoms: _185  and  _186
REMARK   87  A    between atoms: _189  and  _191
REMARK   88  A    between atoms: _191  and  _192
REMARK   89  A    between atoms: _191  and  _194
REMARK   90  A    between atoms: _194  and  _195
REMARK   91  A    between atoms: _198  and  _200
REMARK   92  A    between atoms: _200  and  _201
REMARK   93  A    between atoms: _200  and  _203
REMARK   94  A    between atoms: _203  and  _204
REMARK   95  A    between atoms: _209  and  _210
REMARK   96  A    between atoms: _212  and  _214
REMARK   97  A    between atoms: _214  and  _215
REMARK   98  A    between atoms: _214  and  _217
REMARK   99  A    between atoms: _220  and  _222
REMARK  100  A    between atoms: _222  and  _223
REMARK  101  A    between atoms: _222  and  _225
REMARK  102  A    between atoms: _225  and  _226
REMARK  103  A    between atoms: _232  and  _234
REMARK  104  A    between atoms: _234  and  _235
REMARK  105  A    between atoms: _234  and  _237
REMARK  106  A    between atoms: _239  and  _241
REMARK  107  A    between atoms: _241  and  _242
REMARK  108  A    between atoms: _241  and  _244
REMARK  109  A    between atoms: _246  and  _248
REMARK  110  A    between atoms: _248  and  _249
REMARK  111  A    between atoms: _251  and  _253
REMARK  112  A    between atoms: _253  and  _254
REMARK  113  A    between atoms: _253  and  _256
REMARK  114  A    between atoms: _256  and  _257
REMARK  115  A    between atoms: _259  and  _261
REMARK  116  A    between atoms: _261  and  _262
REMARK  117  A    between atoms: _261  and  _264
REMARK  118  A    between atoms: _264  and  _265
REMARK  119  A    between atoms: _271  and  _273
REMARK  120  A    between atoms: _273  and  _274
REMARK  121  A    between atoms: _273  and  _276
REMARK  122  A    between atoms: _276  and  _277
REMARK  123  A    between atoms: _281  and  _282
REMARK  124  A    between atoms: _287  and  _289
REMARK  125  A    between atoms: _289  and  _290
REMARK  126  A    between atoms: _289  and  _292
REMARK  127  A    between atoms: _295  and  _297
REMARK  128  A    between atoms: _297  and  _298
REMARK  129  A    between atoms: _297  and  _300
REMARK  130  A    between atoms: _300  and  _301
REMARK  131  A    between atoms: _303  and  _305
REMARK  132  A    between atoms: _305  and  _306
REMARK  133  A    between atoms: _309  and  _311
REMARK  134  A    between atoms: _311  and  _312
REMARK  135  A    between atoms: _311  and  _314
REMARK  136  A    between atoms: _317  and  _319
REMARK  137  A    between atoms: _319  and  _320
REMARK  138  A    between atoms: _319  and  _322
REMARK  139  A    between atoms: _322  and  _323
REMARK  140  A    between atoms: _325  and  _327
REMARK  141  A    between atoms: _327  and  _328
REMARK  142  A    between atoms: _327  and  _330
REMARK  143  A    between atoms: _330  and  _331
REMARK  144  A    between atoms: _333  and  _335
REMARK  145  A    between atoms: _335  and  _336
REMARK  146  A    between atoms: _335  and  _338
REMARK  147  A    between atoms: _338  and  _339
REMARK  148  A    between atoms: _344  and  _345
REMARK  149  A    between atoms: _348  and  _349
REMARK  150  A    between atoms: _354  and  _356
REMARK  151  A    between atoms: _356  and  _357
REMARK  152  A    between atoms: _356  and  _359
REMARK  153  A    between atoms: _362  and  _364
REMARK  154  A    between atoms: _364  and  _365
REMARK  155  A    between atoms: _364  and  _367
REMARK  156  A    between atoms: _367  and  _368
REMARK  157  A    between atoms: _370  and  _372
REMARK  158  A    between atoms: _372  and  _373
REMARK  159  A    between atoms: _372  and  _375
REMARK  160  A    between atoms: _375  and  _376
REMARK  161  A    between atoms: _382  and  _384
REMARK  162  A    between atoms: _384  and  _385
REMARK  163  A    between atoms: _384  and  _387
REMARK  164  A    between atoms: _387  and  _388
REMARK  165  A    between atoms: _391  and  _393
REMARK  166  A    between atoms: _393  and  _394
REMARK  167  A    between atoms: _393  and  _396
REMARK  168  A    between atoms: _396  and  _397
REMARK  169  A    between atoms: _397  and  _398
REMARK  170  A    between atoms: _398  and  _399
REMARK  171  A    between atoms: _399  and  _400
REMARK  172  A    between atoms: _404  and  _406
REMARK  173  A    between atoms: _406  and  _407
REMARK  174  A    between atoms: _406  and  _409
REMARK  175  A    between atoms: _409  and  _410
REMARK  176  A    between atoms: _415  and  _416
REMARK  177  A    between atoms: _418  and  _420
REMARK  178  A    between atoms: _420  and  _421
REMARK  179  A    between atoms: _420  and  _423
REMARK  180  A    between atoms: _425  and  _427
REMARK  181  A    between atoms: _427  and  _428
REMARK  182  A    between atoms: _427  and  _430
REMARK  183  A    between atoms: _430  and  _431
REMARK  184  A    between atoms: _434  and  _436
REMARK  185  A    between atoms: _436  and  _437
REMARK  186  A    between atoms: _436  and  _439
REMARK  187  A    between atoms: _439  and  _440
REMARK  188  A    between atoms: _446  and  _448
REMARK  189  A    between atoms: _448  and  _449
REMARK  190  A    between atoms: _448  and  _451
REMARK  191  A    between atoms: _454  and  _456
REMARK  192  A    between atoms: _456  and  _457
REMARK  193  A    between atoms: _456  and  _459
REMARK  194  A    between atoms: _459  and  _460
REMARK  195  A    between atoms: _463  and  _465
REMARK  196  A    between atoms: _465  and  _466
REMARK  197  A    between atoms: _465  and  _468
REMARK  198  A    between atoms: _468  and  _469
REMARK  199  A    between atoms: _471  and  _473
REMARK  200  A    between atoms: _473  and  _474
REMARK  201  A    between atoms: _473  and  _476
REMARK  202  A    between atoms: _476  and  _477
REMARK  203  A    between atoms: _480  and  _482
REMARK  204  A    between atoms: _482  and  _483
REMARK  205  A    between atoms: _486  and  _488
REMARK  206  A    between atoms: _488  and  _489
REMARK  207  A    between atoms: _488  and  _491
REMARK  208  A    between atoms: _491  and  _492
REMARK  209  A    between atoms: _495  and  _497
REMARK  210  A    between atoms: _497  and  _498
REMARK  211  A    between atoms: _497  and  _500
REMARK  212  A    between atoms: _500  and  _501
REMARK  213  A    between atoms: _501  and  _502
REMARK                            x       y       z     vdW  Elec       q    Type
REMARK                         _______ _______ _______ _____ _____    ______ ____
ROOT
ATOM      1  C   SER A   2     -21.831 -22.305  -1.987  0.00  0.00    +0.243 C 
ATOM      2  O   SER A   2     -22.115 -21.120  -2.226  0.00  0.00    -0.273 OA
ATOM      3  N   TYR A   3     -21.058 -23.056  -2.770  0.00  0.00    -0.298 N 
ATOM      4  H   TYR A   3     -20.718 -23.973  -2.417  0.00  0.00    +0.150 HD
ENDROOT
BRANCH   1   5
ATOM      5  CA  SER A   2     -22.343 -23.038  -0.766  0.00  0.00    +0.178 C 
BRANCH   5   8
ATOM      6  C   SER A   1     -22.604 -22.533   1.586  0.00  0.00    +0.241 C 
ATOM      7  O   SER A   1     -22.104 -23.606   1.931  0.00  0.00    -0.274 OA
ATOM      8  N   SER A   2     -22.706 -22.146   0.317  0.00  0.00    -0.295 N 
ATOM      9  H   SER A   2     -23.051 -21.189   0.099  0.00  0.00    +0.150 HD
BRANCH   6  10
ATOM     10  CA  SER A   1     -23.091 -21.551   2.617  0.00  0.00    +0.174 C 
BRANCH  10  11
ATOM     11  N   SER A   1     -23.456 -22.254   3.847  0.00  0.00    -0.236 NA
ATOM     12  H   SER A   1     -22.744 -22.857   4.305  0.00  0.00    +0.142 HD
ENDBRANCH  10  11
BRANCH  10  13
ATOM     13  CB  SER A   1     -21.980 -20.555   2.884  0.00  0.00    +0.163 C 
BRANCH  13  14
ATOM     14  OG  SER A   1     -20.898 -21.129   3.629  0.00  0.00    -0.380 OA
ATOM     15  H   SER A   1     -20.514 -21.887   3.120  0.00  0.00    +0.211 HD
ENDBRANCH  13  14
ENDBRANCH  10  13
ENDBRANCH   6  10
ENDBRANCH   5   8
BRANCH   5  16
ATOM     16  CB  SER A   2     -23.576 -23.851  -1.126  0.00  0.00    +0.166 C 
BRANCH  16  17
ATOM     17  OG  SER A   2     -23.397 -24.666  -2.265  0.00  0.00    -0.380 OA
ATOM     18  H   SER A   2     -22.657 -25.303  -2.100  0.00  0.00    +0.211 HD
ENDBRANCH  16  17
ENDBRANCH   5  16
ENDBRANCH   1   5
BRANCH   3  19
ATOM     19  CA  TYR A   3     -20.680 -22.628  -4.097  0.00  0.00    +0.141 C 
BRANCH  19  20
ATOM     20  C   TYR A   3     -21.844 -22.364  -5.026  0.00  0.00    +0.227 C 
ATOM     21  O   TYR A   3     -21.644 -21.716  -6.064  0.00  0.00    -0.286 OA
ENDBRANCH  19  20
BRANCH  19  22
ATOM     22  CB  TYR A   3     -19.737 -23.637  -4.718  0.00  0.00    +0.054 C 
BRANCH  22  23
ATOM     23  CG  TYR A   3     -18.298 -23.384  -4.382  0.00  0.00    -0.020 A 
ATOM     24  CD2 TYR A   3     -17.877 -23.283  -3.072  0.00  0.00    -0.001 A 
ATOM     25  CE2 TYR A   3     -16.553 -23.042  -2.774  0.00  0.00    +0.036 A 
ATOM     26  CZ  TYR A   3     -15.643 -22.878  -3.788  0.00  0.00    +0.134 A 
ATOM     27  CE1 TYR A   3     -16.046 -22.978  -5.086  0.00  0.00    +0.036 A 
ATOM     28  CD1 TYR A   3     -17.372 -23.214  -5.374  0.00  0.00    -0.001 A 
BRANCH  26  29
ATOM     29  OH  TYR A   3     -14.316 -22.615  -3.506  0.00  0.00    -0.506 OA
ATOM     30  HH  TYR A   3     -14.060 -21.748  -3.909  0.00  0.00    +0.292 HD
ENDBRANCH  26  29
ENDBRANCH  22  23
ENDBRANCH  19  22
ENDBRANCH   3  19
TORSDOF 13
REMARK  Name = ../refined-set-2016/4ql1/4ql1_pocket.pdb
REMARK  213 active torsions:
REMARK  status: ('A' for Active; 'I' for Inactive)
REMARK    1  A    between atoms: _1  and  _3
REMARK    2  A    between atoms: _3  and  _4
REMARK    3  A    between atoms: _3  and  _6
REMARK    4  A    between atoms: _6  and  _7
REMARK    5  A    between atoms: _7  and  _8
REMARK    6  A    between atoms: _8  and  _9
REMARK    7  A    between atoms: _9  and  _10
REMARK    8  A    between atoms: _14  and  _16
REMARK    9  A    between atoms: _16  and  _17
REMARK   10  A    between atoms: _20  and  _22
REMARK   11  A    between atoms: _22  and  _23
REMARK   12  A    between atoms: _22  and  _25
REMARK   13  A    between atoms: _28  and  _30
REMARK   14  A    between atoms: _30  and  _31
REMARK   15  A    between atoms: _30  and  _33
REMARK   16  A    between atoms: _33  and  _34
REMARK   17  A    between atoms: _36  and  _38
REMARK   18  A    between atoms: _38  and  _39
REMARK   19  A    between atoms: _38  and  _41
REMARK   20  A    between atoms: _41  and  _42
REMARK   21  A    between atoms: _44  and  _46
REMARK   22  A    between atoms: _46  and  _47
REMARK   23  A    between atoms: _46  and  _49
REMARK   24  A    between atoms: _52  and  _54
REMARK   25  A    between atoms: _54  and  _55
REMARK   26  A    between atoms: _54  and  _57
REMARK   27  A    between atoms: _57  and  _58
REMARK   28  A    between atoms: _58  and  _59
REMARK   29  A    between atoms: _59  and  _60
REMARK   30  A    between atoms: _60  and  _61
REMARK   31  A    between atoms: _65  and  _67
REMARK   32  A    between atoms: _67  and  _68
REMARK   33  A    between atoms: _67  and  _70
REMARK   34  A    between atoms: _70  and  _71
REMARK   35  A    between atoms: _73  and  _75
REMARK   36  A    between atoms: _75  and  _76
REMARK   37  A    between atoms: _75  and  _78
REMARK   38  A    between atoms: _78  and  _79
REMARK   39  A    between atoms: _81  and  _83
REMARK   40  A    between atoms: _83  and  _84
REMARK   41  A    between atoms: _87  and  _89
REMARK   42  A    between atoms: _89  and  _90
REMARK   43  A    between atoms: _89  and  _92
REMARK   44  A    between atoms: _92  and  _93
REMARK   45  A    between atoms: _96  and  _98
REMARK   46  A    between atoms: _98  and  _99
REMARK   47  A    between atoms: _98  and  _101
REMARK   48  A    between atoms: _101  and  _102
REMARK   49  A    between atoms: _102  and  _103
REMARK   50  A    between atoms: _103  and  _104
REMARK   51  A    between atoms: _104  and  _105
REMARK   52  A    between atoms: _109  and  _111
REMARK   53  A    between atoms: _111  and  _112
REMARK   54  A    between atoms: _111  and  _114
REMARK   55  A    between atoms: _114  and  _115
REMARK   56  A    between atoms: _118  and  _120
REMARK   57  A    between atoms: _120  and  _121
REMARK   58  A    between atoms: _120  and  _123
REMARK   59  A    between atoms: _123  and  _124
REMARK   60  A    between atoms: _127  and  _129
REMARK   61  A    between atoms: _129  and  _130
REMARK   62  A    between atoms: _132  and  _134
REMARK   63  A    between atoms: _134  and  _135
REMARK   64  A    between atoms: _134  and  _137
REMARK   65  A    between atoms: _137  and  _138
REMARK   66  A    between atoms: _141  and  _143
REMARK   67  A    between atoms: _143  and  _144
REMARK   68  A    between atoms: _143  and  _146
REMARK   69  A    between atoms: _146  and  _147
REMARK   70  A    between atoms: _149  and  _151
REMARK   71  A    between atoms: _151  and  _152
REMARK   72  A    between atoms: _151  and  _154
REMARK   73  A    between atoms: _154  and  _155
REMARK   74  A    between atoms: _158  and  _160
REMARK   75  A    between atoms: _160  and  _161
REMARK   76  A    between atoms: _160  and  _163
REMARK   77  A    between atoms: _166  and  _168
REMARK   78  A    between atoms: _168  and  _169
REMARK   79  A    between atoms: _172  and  _174
REMARK   80  A    between atoms: _174  and  _175
REMARK   81  A    between atoms: _174  and  _177
REMARK   82  A    between atoms: _177  and  _178
REMARK   83  A    between atoms: _180  and  _182
REMARK   84  A    between atoms: _182  and  _183
REMARK   85  A    between atoms: _182  and  _185
REMARK   86  A    between atoms: _185  and  _186
REMARK   87  A    between atoms: _189  and  _191
REMARK   88  A    between atoms: _191  and  _192
REMARK   89  A    between atoms: _191  and  _194
REMARK   90  A    between atoms: _194  and  _195
REMARK   91  A    between atoms: _198  and  _200
REMARK   92  A    between atoms: _200  and  _201
REMARK   93  A    between atoms: _200  and  _203
REMARK   94  A    between atoms: _203  and  _204
REMARK   95  A    between atoms: _209  and  _210
REMARK   96  A    between atoms: _212  and  _214
REMARK   97  A    between atoms: _214  and  _215
REMARK   98  A    between atoms: _214  and  _217
REMARK   99  A    between atoms: _220  and  _222
REMARK  100  A    between atoms: _222  and  _223
REMARK  101  A    between atoms: _222  and  _225
REMARK  102  A    between atoms: _225  and  _226
REMARK  103  A    between atoms: _232  and  _234
REMARK  104  A    between atoms: _234  and  _235
REMARK  105  A    between atoms: _234  and  _237
REMARK  106  A    between atoms: _239  and  _241
REMARK  107  A    between atoms: _241  and  _242
REMARK  108  A    between atoms: _241  and  _244
REMARK  109  A    between atoms: _246  and  _248
REMARK  110  A    between atoms: _248  and  _249
REMARK  111  A    between atoms: _251  and  _253
REMARK  112  A    between atoms: _253  and  _254
REMARK  113  A    between atoms: _253  and  _256
REMARK  114  A    between atoms: _256  and  _257
REMARK  115  A    between atoms: _259  and  _261
REMARK  116  A    between atoms: _261  and  _262
REMARK  117  A    between atoms: _261  and  _264
REMARK  118  A    between atoms: _264  and  _265
REMARK  119  A    between atoms: _271  and  _273
REMARK  120  A    between atoms: _273  and  _274
REMARK  121  A    between atoms: _273  and  _276
REMARK  122  A    between atoms: _276  and  _277
REMARK  123  A    between atoms: _281  and  _282
REMARK  124  A    between atoms: _287  and  _289
REMARK  125  A    between atoms: _289  and  _290
REMARK  126  A    between atoms: _289  and  _292
REMARK  127  A    between atoms: _295  and  _297
REMARK  128  A    between atoms: _297  and  _298
REMARK  129  A    between atoms: _297  and  _300
REMARK  130  A    between atoms: _300  and  _301
REMARK  131  A    between atoms: _303  and  _305
REMARK  132  A    between atoms: _305  and  _306
REMARK  133  A    between atoms: _309  and  _311
REMARK  134  A    between atoms: _311  and  _312
REMARK  135  A    between atoms: _311  and  _314
REMARK  136  A    between atoms: _317  and  _319
REMARK  137  A    between atoms: _319  and  _320
REMARK  138  A    between atoms: _319  and  _322
REMARK  139  A    between atoms: _322  and  _323
REMARK  140  A    between atoms: _325  and  _327
REMARK  141  A    between atoms: _327  and  _328
REMARK  142  A    between atoms: _327  and  _330
REMARK  143  A    between atoms: _330  and  _331
REMARK  144  A    between atoms: _333  and  _335
REMARK  145  A    between atoms: _335  and  _336
REMARK  146  A    between atoms: _335  and  _338
REMARK  147  A    between atoms: _338  and  _339
REMARK  148  A    between atoms: _344  and  _345
REMARK  149  A    between atoms: _348  and  _349
REMARK  150  A    between atoms: _354  and  _356
REMARK  151  A    between atoms: _356  and  _357
REMARK  152  A    between atoms: _356  and  _359
REMARK  153  A    between atoms: _362  and  _364
REMARK  154  A    between atoms: _364  and  _365
REMARK  155  A    between atoms: _364  and  _367
REMARK  156  A    between atoms: _367  and  _368
REMARK  157  A    between atoms: _370  and  _372
REMARK  158  A    between atoms: _372  and  _373
REMARK  159  A    between atoms: _372  and  _375
REMARK  160  A    between atoms: _375  and  _376
REMARK  161  A    between atoms: _382  and  _384
REMARK  162  A    between atoms: _384  and  _385
REMARK  163  A    between atoms: _384  and  _387
REMARK  164  A    between atoms: _387  and  _388
REMARK  165  A    between atoms: _391  and  _393
REMARK  166  A    between atoms: _393  and  _394
REMARK  167  A    between atoms: _393  and  _396
REMARK  168  A    between atoms: _396  and  _397
REMARK  169  A    between atoms: _397  and  _398
REMARK  170  A    between atoms: _398  and  _399
REMARK  171  A    between atoms: _399  and  _400
REMARK  172  A    between atoms: _404  and  _406
REMARK  173  A    between atoms: _406  and  _407
REMARK  174  A    between atoms: _406  and  _409
REMARK  175  A    between atoms: _409  and  _410
REMARK  176  A    between atoms: _415  and  _416
REMARK  177  A    between atoms: _418  and  _420
REMARK  178  A    between atoms: _420  and  _421
REMARK  179  A    between atoms: _420  and  _423
REMARK  180  A    between atoms: _425  and  _427
REMARK  181  A    between atoms: _427  and  _428
REMARK  182  A    between atoms: _427  and  _430
REMARK  183  A    between atoms: _430  and  _431
REMARK  184  A    between atoms: _434  and  _436
REMARK  185  A    between atoms: _436  and  _437
REMARK  186  A    between atoms: _436  and  _439
REMARK  187  A    between atoms: _439  and  _440
REMARK  188  A    between atoms: _446  and  _448
REMARK  189  A    between atoms: _448  and  _449
REMARK  190  A    between atoms: _448  and  _451
REMARK  191  A    between atoms: _454  and  _456
REMARK  192  A    between atoms: _456  and  _457
REMARK  193  A    between atoms: _456  and  _459
REMARK  194  A    between atoms: _459  and  _460
REMARK  195  A    between atoms: _463  and  _465
REMARK  196  A    between atoms: _465  and  _466
REMARK  197  A    between atoms: _465  and  _468
REMARK  198  A    between atoms: _468  and  _469
REMARK  199  A    between atoms: _471  and  _473
REMARK  200  A    between atoms: _473  and  _474
REMARK  201  A    between atoms: _473  and  _476
REMARK  202  A    between atoms: _476  and  _477
REMARK  203  A    between atoms: _480  and  _482
REMARK  204  A    between atoms: _482  and  _483
REMARK  205  A    between atoms: _486  and  _488
REMARK  206  A    between atoms: _488  and  _489
REMARK  207  A    between atoms: _488  and  _491
REMARK  208  A    between atoms: _491  and  _492
REMARK  209  A    between atoms: _495  and  _497
REMARK  210  A    between atoms: _497  and  _498
REMARK  211  A    between atoms: _497  and  _500
REMARK  212  A    between atoms: _500  and  _501
REMARK  213  A    between atoms: _501  and  _502
REMARK                            x       y       z     vdW  Elec       q    Type
REMARK                         _______ _______ _______ _____ _____    ______ ____
ROOT
ATOM      1  CA  SER A   3     -17.064 -19.352   0.681  0.00  0.00    +0.178 C 
ENDROOT
BRANCH   1   3
ATOM      2  C   VAL A   2     -19.334 -19.176  -0.179  0.00  0.00    +0.241 C 
ATOM      3  N   SER A   3     -18.213 -18.602   0.233  0.00  0.00    -0.295 N 
ATOM      4  H   SER A   3     -18.159 -17.563   0.234  0.00  0.00    +0.150 HD
ATOM      5  O   VAL A   2     -19.554 -20.393  -0.075  0.00  0.00    -0.273 OA
BRANCH   2   6
ATOM      6  CA  VAL A   2     -20.321 -18.243  -0.862  0.00  0.00    +0.148 C 
BRANCH   6   8
ATOM      7  C   PRO A   1     -19.652 -18.136  -3.205  0.00  0.00    +0.239 C 
ATOM      8  N   VAL A   2     -20.387 -18.686  -2.243  0.00  0.00    -0.297 N 
ATOM      9  H   VAL A   2     -21.033 -19.463  -2.489  0.00  0.00    +0.150 HD
ATOM     10  O   PRO A   1     -18.958 -17.129  -3.040  0.00  0.00    -0.274 OA
BRANCH   7  12
ATOM     11  N   PRO A   1     -19.821 -17.819  -5.648  0.00  0.00    -0.210 NA
ATOM     12  CA  PRO A   1     -19.737 -18.793  -4.570  0.00  0.00    +0.149 C 
ATOM     13  CB  PRO A   1     -18.428 -19.524  -4.884  0.00  0.00    +0.028 C 
ATOM     14  CG  PRO A   1     -18.372 -19.492  -6.372  0.00  0.00    +0.021 C 
ATOM     15  CD  PRO A   1     -18.876 -18.131  -6.737  0.00  0.00    +0.089 C 
ENDBRANCH   7  12
ENDBRANCH   6   8
BRANCH   6  16
ATOM     16  CB  VAL A   2     -21.687 -18.258  -0.158  0.00  0.00    +0.027 C 
ATOM     17  CG2 VAL A   2     -21.570 -17.565   1.183  0.00  0.00    +0.002 C 
ATOM     18  CG1 VAL A   2     -22.765 -17.574  -1.000  0.00  0.00    +0.002 C 
ENDBRANCH   6  16
ENDBRANCH   2   6
ENDBRANCH   1   3
BRANCH   1  19
ATOM     19  C   SER A   3     -16.987 -19.498   2.217  0.00  0.00    +0.243 C 
ATOM     20  N   PHE A   4     -17.826 -18.764   2.949  0.00  0.00    -0.298 N 
ATOM     21  H   PHE A   4     -18.509 -18.152   2.459  0.00  0.00    +0.150 HD
ATOM     22  O   SER A   3     -16.156 -20.240   2.725  0.00  0.00    -0.273 OA
BRANCH  20  23
ATOM     23  CA  PHE A   4     -17.827 -18.782   4.411  0.00  0.00    +0.141 C 
BRANCH  23  24
ATOM     24  C   PHE A   4     -19.120 -18.141   4.928  0.00  0.00    +0.227 C 
ATOM     25  O   PHE A   4     -19.594 -17.172   4.350  0.00  0.00    -0.286 OA
ENDBRANCH  23  24
BRANCH  23  26
ATOM     26  CB  PHE A   4     -16.647 -17.961   4.961  0.00  0.00    +0.054 C 
BRANCH  26  27
ATOM     27  CG  PHE A   4     -16.729 -17.738   6.447  0.00  0.00    -0.020 A 
ATOM     28  CD2 PHE A   4     -16.415 -18.768   7.307  0.00  0.00    -0.004 A 
ATOM     29  CE2 PHE A   4     -16.525 -18.603   8.668  0.00  0.00    -0.000 A 
ATOM     30  CZ  PHE A   4     -16.975 -17.405   9.184  0.00  0.00    -0.000 A 
ATOM     31  CE1 PHE A   4     -17.314 -16.360   8.343  0.00  0.00    -0.000 A 
ATOM     32  CD1 PHE A   4     -17.189 -16.535   6.966  0.00  0.00    -0.004 A 
ENDBRANCH  26  27
ENDBRANCH  23  26
ENDBRANCH  20  23
ENDBRANCH   1  19
BRANCH   1  33
ATOM     33  CB  SER A   3     -15.838 -18.643   0.132  0.00  0.00    +0.166 C 
BRANCH  33  34
ATOM     34  OG  SER A   3     -15.892 -17.274   0.463  0.00  0.00    -0.380 OA
ATOM     35  H   SER A   3     -15.916 -17.174   1.448  0.00  0.00    +0.211 HD
ENDBRANCH  33  34
ENDBRANCH   1  33
TORSDOF 12
REMARK  Name = ../refined-set-2016/4ql1/4ql1_pocket.pdb
REMARK  213 active torsions:
REMARK  status: ('A' for Active; 'I' for Inactive)
REMARK    1  A    between atoms: _1  and  _3
REMARK    2  A    between atoms: _3  and  _4
REMARK    3  A    between atoms: _3  and  _6
REMARK    4  A    between atoms: _6  and  _7
REMARK    5  A    between atoms: _7  and  _8
REMARK    6  A    between atoms: _8  and  _9
REMARK    7  A    between atoms: _9  and  _10
REMARK    8  A    between atoms: _14  and  _16
REMARK    9  A    between atoms: _16  and  _17
REMARK   10  A    between atoms: _20  and  _22
REMARK   11  A    between atoms: _22  and  _23
REMARK   12  A    between atoms: _22  and  _25
REMARK   13  A    between atoms: _28  and  _30
REMARK   14  A    between atoms: _30  and  _31
REMARK   15  A    between atoms: _30  and  _33
REMARK   16  A    between atoms: _33  and  _34
REMARK   17  A    between atoms: _36  and  _38
REMARK   18  A    between atoms: _38  and  _39
REMARK   19  A    between atoms: _38  and  _41
REMARK   20  A    between atoms: _41  and  _42
REMARK   21  A    between atoms: _44  and  _46
REMARK   22  A    between atoms: _46  and  _47
REMARK   23  A    between atoms: _46  and  _49
REMARK   24  A    between atoms: _52  and  _54
REMARK   25  A    between atoms: _54  and  _55
REMARK   26  A    between atoms: _54  and  _57
REMARK   27  A    between atoms: _57  and  _58
REMARK   28  A    between atoms: _58  and  _59
REMARK   29  A    between atoms: _59  and  _60
REMARK   30  A    between atoms: _60  and  _61
REMARK   31  A    between atoms: _65  and  _67
REMARK   32  A    between atoms: _67  and  _68
REMARK   33  A    between atoms: _67  and  _70
REMARK   34  A    between atoms: _70  and  _71
REMARK   35  A    between atoms: _73  and  _75
REMARK   36  A    between atoms: _75  and  _76
REMARK   37  A    between atoms: _75  and  _78
REMARK   38  A    between atoms: _78  and  _79
REMARK   39  A    between atoms: _81  and  _83
REMARK   40  A    between atoms: _83  and  _84
REMARK   41  A    between atoms: _87  and  _89
REMARK   42  A    between atoms: _89  and  _90
REMARK   43  A    between atoms: _89  and  _92
REMARK   44  A    between atoms: _92  and  _93
REMARK   45  A    between atoms: _96  and  _98
REMARK   46  A    between atoms: _98  and  _99
REMARK   47  A    between atoms: _98  and  _101
REMARK   48  A    between atoms: _101  and  _102
REMARK   49  A    between atoms: _102  and  _103
REMARK   50  A    between atoms: _103  and  _104
REMARK   51  A    between atoms: _104  and  _105
REMARK   52  A    between atoms: _109  and  _111
REMARK   53  A    between atoms: _111  and  _112
REMARK   54  A    between atoms: _111  and  _114
REMARK   55  A    between atoms: _114  and  _115
REMARK   56  A    between atoms: _118  and  _120
REMARK   57  A    between atoms: _120  and  _121
REMARK   58  A    between atoms: _120  and  _123
REMARK   59  A    between atoms: _123  and  _124
REMARK   60  A    between atoms: _127  and  _129
REMARK   61  A    between atoms: _129  and  _130
REMARK   62  A    between atoms: _132  and  _134
REMARK   63  A    between atoms: _134  and  _135
REMARK   64  A    between atoms: _134  and  _137
REMARK   65  A    between atoms: _137  and  _138
REMARK   66  A    between atoms: _141  and  _143
REMARK   67  A    between atoms: _143  and  _144
REMARK   68  A    between atoms: _143  and  _146
REMARK   69  A    between atoms: _146  and  _147
REMARK   70  A    between atoms: _149  and  _151
REMARK   71  A    between atoms: _151  and  _152
REMARK   72  A    between atoms: _151  and  _154
REMARK   73  A    between atoms: _154  and  _155
REMARK   74  A    between atoms: _158  and  _160
REMARK   75  A    between atoms: _160  and  _161
REMARK   76  A    between atoms: _160  and  _163
REMARK   77  A    between atoms: _166  and  _168
REMARK   78  A    between atoms: _168  and  _169
REMARK   79  A    between atoms: _172  and  _174
REMARK   80  A    between atoms: _174  and  _175
REMARK   81  A    between atoms: _174  and  _177
REMARK   82  A    between atoms: _177  and  _178
REMARK   83  A    between atoms: _180  and  _182
REMARK   84  A    between atoms: _182  and  _183
REMARK   85  A    between atoms: _182  and  _185
REMARK   86  A    between atoms: _185  and  _186
REMARK   87  A    between atoms: _189  and  _191
REMARK   88  A    between atoms: _191  and  _192
REMARK   89  A    between atoms: _191  and  _194
REMARK   90  A    between atoms: _194  and  _195
REMARK   91  A    between atoms: _198  and  _200
REMARK   92  A    between atoms: _200  and  _201
REMARK   93  A    between atoms: _200  and  _203
REMARK   94  A    between atoms: _203  and  _204
REMARK   95  A    between atoms: _209  and  _210
REMARK   96  A    between atoms: _212  and  _214
REMARK   97  A    between atoms: _214  and  _215
REMARK   98  A    between atoms: _214  and  _217
REMARK   99  A    between atoms: _220  and  _222
REMARK  100  A    between atoms: _222  and  _223
REMARK  101  A    between atoms: _222  and  _225
REMARK  102  A    between atoms: _225  and  _226
REMARK  103  A    between atoms: _232  and  _234
REMARK  104  A    between atoms: _234  and  _235
REMARK  105  A    between atoms: _234  and  _237
REMARK  106  A    between atoms: _239  and  _241
REMARK  107  A    between atoms: _241  and  _242
REMARK  108  A    between atoms: _241  and  _244
REMARK  109  A    between atoms: _246  and  _248
REMARK  110  A    between atoms: _248  and  _249
REMARK  111  A    between atoms: _251  and  _253
REMARK  112  A    between atoms: _253  and  _254
REMARK  113  A    between atoms: _253  and  _256
REMARK  114  A    between atoms: _256  and  _257
REMARK  115  A    between atoms: _259  and  _261
REMARK  116  A    between atoms: _261  and  _262
REMARK  117  A    between atoms: _261  and  _264
REMARK  118  A    between atoms: _264  and  _265
REMARK  119  A    between atoms: _271  and  _273
REMARK  120  A    between atoms: _273  and  _274
REMARK  121  A    between atoms: _273  and  _276
REMARK  122  A    between atoms: _276  and  _277
REMARK  123  A    between atoms: _281  and  _282
REMARK  124  A    between atoms: _287  and  _289
REMARK  125  A    between atoms: _289  and  _290
REMARK  126  A    between atoms: _289  and  _292
REMARK  127  A    between atoms: _295  and  _297
REMARK  128  A    between atoms: _297  and  _298
REMARK  129  A    between atoms: _297  and  _300
REMARK  130  A    between atoms: _300  and  _301
REMARK  131  A    between atoms: _303  and  _305
REMARK  132  A    between atoms: _305  and  _306
REMARK  133  A    between atoms: _309  and  _311
REMARK  134  A    between atoms: _311  and  _312
REMARK  135  A    between atoms: _311  and  _314
REMARK  136  A    between atoms: _317  and  _319
REMARK  137  A    between atoms: _319  and  _320
REMARK  138  A    between atoms: _319  and  _322
REMARK  139  A    between atoms: _322  and  _323
REMARK  140  A    between atoms: _325  and  _327
REMARK  141  A    between atoms: _327  and  _328
REMARK  142  A    between atoms: _327  and  _330
REMARK  143  A    between atoms: _330  and  _331
REMARK  144  A    between atoms: _333  and  _335
REMARK  145  A    between atoms: _335  and  _336
REMARK  146  A    between atoms: _335  and  _338
REMARK  147  A    between atoms: _338  and  _339
REMARK  148  A    between atoms: _344  and  _345
REMARK  149  A    between atoms: _348  and  _349
REMARK  150  A    between atoms: _354  and  _356
REMARK  151  A    between atoms: _356  and  _357
REMARK  152  A    between atoms: _356  and  _359
REMARK  153  A    between atoms: _362  and  _364
REMARK  154  A    between atoms: _364  and  _365
REMARK  155  A    between atoms: _364  and  _367
REMARK  156  A    between atoms: _367  and  _368
REMARK  157  A    between atoms: _370  and  _372
REMARK  158  A    between atoms: _372  and  _373
REMARK  159  A    between atoms: _372  and  _375
REMARK  160  A    between atoms: _375  and  _376
REMARK  161  A    between atoms: _382  and  _384
REMARK  162  A    between atoms: _384  and  _385
REMARK  163  A    between atoms: _384  and  _387
REMARK  164  A    between atoms: _387  and  _388
REMARK  165  A    between atoms: _391  and  _393
REMARK  166  A    between atoms: _393  and  _394
REMARK  167  A    between atoms: _393  and  _396
REMARK  168  A    between atoms: _396  and  _397
REMARK  169  A    between atoms: _397  and  _398
REMARK  170  A    between atoms: _398  and  _399
REMARK  171  A    between atoms: _399  and  _400
REMARK  172  A    between atoms: _404  and  _406
REMARK  173  A    between atoms: _406  and  _407
REMARK  174  A    between atoms: _406  and  _409
REMARK  175  A    between atoms: _409  and  _410
REMARK  176  A    between atoms: _415  and  _416
REMARK  177  A    between atoms: _418  and  _420
REMARK  178  A    between atoms: _420  and  _421
REMARK  179  A    between atoms: _420  and  _423
REMARK  180  A    between atoms: _425  and  _427
REMARK  181  A    between atoms: _427  and  _428
REMARK  182  A    between atoms: _427  and  _430
REMARK  183  A    between atoms: _430  and  _431
REMARK  184  A    between atoms: _434  and  _436
REMARK  185  A    between atoms: _436  and  _437
REMARK  186  A    between atoms: _436  and  _439
REMARK  187  A    between atoms: _439  and  _440
REMARK  188  A    between atoms: _446  and  _448
REMARK  189  A    between atoms: _448  and  _449
REMARK  190  A    between atoms: _448  and  _451
REMARK  191  A    between atoms: _454  and  _456
REMARK  192  A    between atoms: _456  and  _457
REMARK  193  A    between atoms: _456  and  _459
REMARK  194  A    between atoms: _459  and  _460
REMARK  195  A    between atoms: _463  and  _465
REMARK  196  A    between atoms: _465  and  _466
REMARK  197  A    between atoms: _465  and  _468
REMARK  198  A    between atoms: _468  and  _469
REMARK  199  A    between atoms: _471  and  _473
REMARK  200  A    between atoms: _473  and  _474
REMARK  201  A    between atoms: _473  and  _476
REMARK  202  A    between atoms: _476  and  _477
REMARK  203  A    between atoms: _480  and  _482
REMARK  204  A    between atoms: _482  and  _483
REMARK  205  A    between atoms: _486  and  _488
REMARK  206  A    between atoms: _488  and  _489
REMARK  207  A    between atoms: _488  and  _491
REMARK  208  A    between atoms: _491  and  _492
REMARK  209  A    between atoms: _495  and  _497
REMARK  210  A    between atoms: _497  and  _498
REMARK  211  A    between atoms: _497  and  _500
REMARK  212  A    between atoms: _500  and  _501
REMARK  213  A    between atoms: _501  and  _502
REMARK                            x       y       z     vdW  Elec       q    Type
REMARK                         _______ _______ _______ _____ _____    ______ ____
ROOT
ATOM      1  CA  LEU A   1     -15.357 -15.164  -3.943  0.00  0.00    +0.133 C 
ENDROOT
BRANCH   1   2
ATOM      2  N   LEU A   1     -16.600 -15.186  -3.148  0.00  0.00    -0.239 NA
ATOM      3  H   LEU A   1     -17.354 -15.857  -3.400  0.00  0.00    +0.142 HD
ENDBRANCH   1   2
BRANCH   1   4
ATOM      4  C   LEU A   1     -15.325 -13.967  -4.947  0.00  0.00    +0.224 C 
ATOM      5  O   LEU A   1     -14.596 -13.988  -5.940  0.00  0.00    -0.287 OA
ENDBRANCH   1   4
BRANCH   1   6
ATOM      6  CB  LEU A   1     -15.126 -16.528  -4.609  0.00  0.00    +0.025 C 
BRANCH   6   7
ATOM      7  CG  LEU A   1     -14.931 -17.725  -3.637  0.00  0.00    +0.002 C 
ATOM      8  CD2 LEU A   1     -13.831 -17.502  -2.607  0.00  0.00    +0.000 C 
ATOM      9  CD1 LEU A   1     -14.606 -18.972  -4.430  0.00  0.00    +0.000 C 
ENDBRANCH   6   7
ENDBRANCH   1   6
TORSDOF 4
REMARK  Name = ../refined-set-2016/4ql1/4ql1_pocket.pdb
REMARK  213 active torsions:
REMARK  status: ('A' for Active; 'I' for Inactive)
REMARK    1  A    between atoms: _1  and  _3
REMARK    2  A    between atoms: _3  and  _4
REMARK    3  A    between atoms: _3  and  _6
REMARK    4  A    between atoms: _6  and  _7
REMARK    5  A    between atoms: _7  and  _8
REMARK    6  A    between atoms: _8  and  _9
REMARK    7  A    between atoms: _9  and  _10
REMARK    8  A    between atoms: _14  and  _16
REMARK    9  A    between atoms: _16  and  _17
REMARK   10  A    between atoms: _20  and  _22
REMARK   11  A    between atoms: _22  and  _23
REMARK   12  A    between atoms: _22  and  _25
REMARK   13  A    between atoms: _28  and  _30
REMARK   14  A    between atoms: _30  and  _31
REMARK   15  A    between atoms: _30  and  _33
REMARK   16  A    between atoms: _33  and  _34
REMARK   17  A    between atoms: _36  and  _38
REMARK   18  A    between atoms: _38  and  _39
REMARK   19  A    between atoms: _38  and  _41
REMARK   20  A    between atoms: _41  and  _42
REMARK   21  A    between atoms: _44  and  _46
REMARK   22  A    between atoms: _46  and  _47
REMARK   23  A    between atoms: _46  and  _49
REMARK   24  A    between atoms: _52  and  _54
REMARK   25  A    between atoms: _54  and  _55
REMARK   26  A    between atoms: _54  and  _57
REMARK   27  A    between atoms: _57  and  _58
REMARK   28  A    between atoms: _58  and  _59
REMARK   29  A    between atoms: _59  and  _60
REMARK   30  A    between atoms: _60  and  _61
REMARK   31  A    between atoms: _65  and  _67
REMARK   32  A    between atoms: _67  and  _68
REMARK   33  A    between atoms: _67  and  _70
REMARK   34  A    between atoms: _70  and  _71
REMARK   35  A    between atoms: _73  and  _75
REMARK   36  A    between atoms: _75  and  _76
REMARK   37  A    between atoms: _75  and  _78
REMARK   38  A    between atoms: _78  and  _79
REMARK   39  A    between atoms: _81  and  _83
REMARK   40  A    between atoms: _83  and  _84
REMARK   41  A    between atoms: _87  and  _89
REMARK   42  A    between atoms: _89  and  _90
REMARK   43  A    between atoms: _89  and  _92
REMARK   44  A    between atoms: _92  and  _93
REMARK   45  A    between atoms: _96  and  _98
REMARK   46  A    between atoms: _98  and  _99
REMARK   47  A    between atoms: _98  and  _101
REMARK   48  A    between atoms: _101  and  _102
REMARK   49  A    between atoms: _102  and  _103
REMARK   50  A    between atoms: _103  and  _104
REMARK   51  A    between atoms: _104  and  _105
REMARK   52  A    between atoms: _109  and  _111
REMARK   53  A    between atoms: _111  and  _112
REMARK   54  A    between atoms: _111  and  _114
REMARK   55  A    between atoms: _114  and  _115
REMARK   56  A    between atoms: _118  and  _120
REMARK   57  A    between atoms: _120  and  _121
REMARK   58  A    between atoms: _120  and  _123
REMARK   59  A    between atoms: _123  and  _124
REMARK   60  A    between atoms: _127  and  _129
REMARK   61  A    between atoms: _129  and  _130
REMARK   62  A    between atoms: _132  and  _134
REMARK   63  A    between atoms: _134  and  _135
REMARK   64  A    between atoms: _134  and  _137
REMARK   65  A    between atoms: _137  and  _138
REMARK   66  A    between atoms: _141  and  _143
REMARK   67  A    between atoms: _143  and  _144
REMARK   68  A    between atoms: _143  and  _146
REMARK   69  A    between atoms: _146  and  _147
REMARK   70  A    between atoms: _149  and  _151
REMARK   71  A    between atoms: _151  and  _152
REMARK   72  A    between atoms: _151  and  _154
REMARK   73  A    between atoms: _154  and  _155
REMARK   74  A    between atoms: _158  and  _160
REMARK   75  A    between atoms: _160  and  _161
REMARK   76  A    between atoms: _160  and  _163
REMARK   77  A    between atoms: _166  and  _168
REMARK   78  A    between atoms: _168  and  _169
REMARK   79  A    between atoms: _172  and  _174
REMARK   80  A    between atoms: _174  and  _175
REMARK   81  A    between atoms: _174  and  _177
REMARK   82  A    between atoms: _177  and  _178
REMARK   83  A    between atoms: _180  and  _182
REMARK   84  A    between atoms: _182  and  _183
REMARK   85  A    between atoms: _182  and  _185
REMARK   86  A    between atoms: _185  and  _186
REMARK   87  A    between atoms: _189  and  _191
REMARK   88  A    between atoms: _191  and  _192
REMARK   89  A    between atoms: _191  and  _194
REMARK   90  A    between atoms: _194  and  _195
REMARK   91  A    between atoms: _198  and  _200
REMARK   92  A    between atoms: _200  and  _201
REMARK   93  A    between atoms: _200  and  _203
REMARK   94  A    between atoms: _203  and  _204
REMARK   95  A    between atoms: _209  and  _210
REMARK   96  A    between atoms: _212  and  _214
REMARK   97  A    between atoms: _214  and  _215
REMARK   98  A    between atoms: _214  and  _217
REMARK   99  A    between atoms: _220  and  _222
REMARK  100  A    between atoms: _222  and  _223
REMARK  101  A    between atoms: _222  and  _225
REMARK  102  A    between atoms: _225  and  _226
REMARK  103  A    between atoms: _232  and  _234
REMARK  104  A    between atoms: _234  and  _235
REMARK  105  A    between atoms: _234  and  _237
REMARK  106  A    between atoms: _239  and  _241
REMARK  107  A    between atoms: _241  and  _242
REMARK  108  A    between atoms: _241  and  _244
REMARK  109  A    between atoms: _246  and  _248
REMARK  110  A    between atoms: _248  and  _249
REMARK  111  A    between atoms: _251  and  _253
REMARK  112  A    between atoms: _253  and  _254
REMARK  113  A    between atoms: _253  and  _256
REMARK  114  A    between atoms: _256  and  _257
REMARK  115  A    between atoms: _259  and  _261
REMARK  116  A    between atoms: _261  and  _262
REMARK  117  A    between atoms: _261  and  _264
REMARK  118  A    between atoms: _264  and  _265
REMARK  119  A    between atoms: _271  and  _273
REMARK  120  A    between atoms: _273  and  _274
REMARK  121  A    between atoms: _273  and  _276
REMARK  122  A    between atoms: _276  and  _277
REMARK  123  A    between atoms: _281  and  _282
REMARK  124  A    between atoms: _287  and  _289
REMARK  125  A    between atoms: _289  and  _290
REMARK  126  A    between atoms: _289  and  _292
REMARK  127  A    between atoms: _295  and  _297
REMARK  128  A    between atoms: _297  and  _298
REMARK  129  A    between atoms: _297  and  _300
REMARK  130  A    between atoms: _300  and  _301
REMARK  131  A    between atoms: _303  and  _305
REMARK  132  A    between atoms: _305  and  _306
REMARK  133  A    between atoms: _309  and  _311
REMARK  134  A    between atoms: _311  and  _312
REMARK  135  A    between atoms: _311  and  _314
REMARK  136  A    between atoms: _317  and  _319
REMARK  137  A    between atoms: _319  and  _320
REMARK  138  A    between atoms: _319  and  _322
REMARK  139  A    between atoms: _322  and  _323
REMARK  140  A    between atoms: _325  and  _327
REMARK  141  A    between atoms: _327  and  _328
REMARK  142  A    between atoms: _327  and  _330
REMARK  143  A    between atoms: _330  and  _331
REMARK  144  A    between atoms: _333  and  _335
REMARK  145  A    between atoms: _335  and  _336
REMARK  146  A    between atoms: _335  and  _338
REMARK  147  A    between atoms: _338  and  _339
REMARK  148  A    between atoms: _344  and  _345
REMARK  149  A    between atoms: _348  and  _349
REMARK  150  A    between atoms: _354  and  _356
REMARK  151  A    between atoms: _356  and  _357
REMARK  152  A    between atoms: _356  and  _359
REMARK  153  A    between atoms: _362  and  _364
REMARK  154  A    between atoms: _364  and  _365
REMARK  155  A    between atoms: _364  and  _367
REMARK  156  A    between atoms: _367  and  _368
REMARK  157  A    between atoms: _370  and  _372
REMARK  158  A    between atoms: _372  and  _373
REMARK  159  A    between atoms: _372  and  _375
REMARK  160  A    between atoms: _375  and  _376
REMARK  161  A    between atoms: _382  and  _384
REMARK  162  A    between atoms: _384  and  _385
REMARK  163  A    between atoms: _384  and  _387
REMARK  164  A    between atoms: _387  and  _388
REMARK  165  A    between atoms: _391  and  _393
REMARK  166  A    between atoms: _393  and  _394
REMARK  167  A    between atoms: _393  and  _396
REMARK  168  A    between atoms: _396  and  _397
REMARK  169  A    between atoms: _397  and  _398
REMARK  170  A    between atoms: _398  and  _399
REMARK  171  A    between atoms: _399  and  _400
REMARK  172  A    between atoms: _404  and  _406
REMARK  173  A    between atoms: _406  and  _407
REMARK  174  A    between atoms: _406  and  _409
REMARK  175  A    between atoms: _409  and  _410
REMARK  176  A    between atoms: _415  and  _416
REMARK  177  A    between atoms: _418  and  _420
REMARK  178  A    between atoms: _420  and  _421
REMARK  179  A    between atoms: _420  and  _423
REMARK  180  A    between atoms: _425  and  _427
REMARK  181  A    between atoms: _427  and  _428
REMARK  182  A    between atoms: _427  and  _430
REMARK  183  A    between atoms: _430  and  _431
REMARK  184  A    between atoms: _434  and  _436
REMARK  185  A    between atoms: _436  and  _437
REMARK  186  A    between atoms: _436  and  _439
REMARK  187  A    between atoms: _439  and  _440
REMARK  188  A    between atoms: _446  and  _448
REMARK  189  A    between atoms: _448  and  _449
REMARK  190  A    between atoms: _448  and  _451
REMARK  191  A    between atoms: _454  and  _456
REMARK  192  A    between atoms: _456  and  _457
REMARK  193  A    between atoms: _456  and  _459
REMARK  194  A    between atoms: _459  and  _460
REMARK  195  A    between atoms: _463  and  _465
REMARK  196  A    between atoms: _465  and  _466
REMARK  197  A    between atoms: _465  and  _468
REMARK  198  A    between atoms: _468  and  _469
REMARK  199  A    between atoms: _471  and  _473
REMARK  200  A    between atoms: _473  and  _474
REMARK  201  A    between atoms: _473  and  _476
REMARK  202  A    between atoms: _476  and  _477
REMARK  203  A    between atoms: _480  and  _482
REMARK  204  A    between atoms: _482  and  _483
REMARK  205  A    between atoms: _486  and  _488
REMARK  206  A    between atoms: _488  and  _489
REMARK  207  A    between atoms: _488  and  _491
REMARK  208  A    between atoms: _491  and  _492
REMARK  209  A    between atoms: _495  and  _497
REMARK  210  A    between atoms: _497  and  _498
REMARK  211  A    between atoms: _497  and  _500
REMARK  212  A    between atoms: _500  and  _501
REMARK  213  A    between atoms: _501  and  _502
REMARK                            x       y       z     vdW  Elec       q    Type
REMARK                         _______ _______ _______ _____ _____    ______ ____
ROOT
ATOM      1  C   TYR A   2     -11.094 -19.779  -0.292  0.00  0.00    +0.241 C 
ATOM      2  N   CYS A   3     -11.517 -20.760   0.509  0.00  0.00    -0.296 N 
ATOM      3  H   CYS A   3     -11.065 -21.695   0.456  0.00  0.00    +0.150 HD
ATOM      4  O   TYR A   2     -11.581 -18.641  -0.302  0.00  0.00    -0.273 OA
ENDROOT
BRANCH   2   5
ATOM      5  CA  CYS A   3     -12.590 -20.543   1.445  0.00  0.00    +0.160 C 
BRANCH   5   6
ATOM      6  C   CYS A   3     -11.939 -20.129   2.761  0.00  0.00    +0.242 C 
ATOM      7  O   CYS A   3     -11.440 -20.951   3.535  0.00  0.00    -0.273 OA
ATOM      8  N   ILE A   4     -11.920 -18.822   2.968  0.00  0.00    -0.297 N 
ATOM      9  H   ILE A   4     -12.459 -18.223   2.311  0.00  0.00    +0.150 HD
BRANCH   8  10
ATOM     10  CA  ILE A   4     -11.197 -18.158   4.052  0.00  0.00    +0.149 C 
BRANCH  10  11
ATOM     11  C   ILE A   4     -12.178 -17.799   5.150  0.00  0.00    +0.241 C 
ATOM     12  N   PHE A   5     -11.808 -18.165   6.366  0.00  0.00    -0.298 N 
ATOM     13  H   PHE A   5     -10.879 -18.615   6.493  0.00  0.00    +0.150 HD
ATOM     14  O   ILE A   4     -13.236 -17.208   4.912  0.00  0.00    -0.273 OA
BRANCH  12  15
ATOM     15  CA  PHE A   5     -12.643 -17.963   7.520  0.00  0.00    +0.141 C 
BRANCH  15  16
ATOM     16  C   PHE A   5     -12.595 -16.491   7.932  0.00  0.00    +0.227 C 
ATOM     17  O   PHE A   5     -11.580 -15.816   7.761  0.00  0.00    -0.286 OA
ENDBRANCH  15  16
BRANCH  15  18
ATOM     18  CB  PHE A   5     -12.110 -18.856   8.645  0.00  0.00    +0.054 C 
BRANCH  18  19
ATOM     19  CG  PHE A   5     -13.163 -19.423   9.551  0.00  0.00    -0.020 A 
ATOM     20  CD2 PHE A   5     -13.437 -18.841  10.771  0.00  0.00    -0.004 A 
ATOM     21  CE2 PHE A   5     -14.390 -19.388  11.617  0.00  0.00    -0.000 A 
ATOM     22  CZ  PHE A   5     -15.035 -20.545  11.257  0.00  0.00    -0.000 A 
ATOM     23  CE1 PHE A   5     -14.767 -21.146  10.052  0.00  0.00    -0.000 A 
ATOM     24  CD1 PHE A   5     -13.826 -20.589   9.202  0.00  0.00    -0.004 A 
ENDBRANCH  18  19
ENDBRANCH  15  18
ENDBRANCH  12  15
ENDBRANCH  10  11
BRANCH  10  25
ATOM     25  CB  ILE A   4     -10.492 -16.870   3.548  0.00  0.00    +0.027 C 
ATOM     26  CG2 ILE A   4      -9.766 -16.176   4.697  0.00  0.00    +0.002 C 
BRANCH  25  27
ATOM     27  CG1 ILE A   4      -9.540 -17.219   2.400  0.00  0.00    +0.002 C 
ATOM     28  CD1 ILE A   4      -8.659 -16.107   1.888  0.00  0.00    +0.000 C 
ENDBRANCH  25  27
ENDBRANCH  10  25
ENDBRANCH   8  10
ENDBRANCH   5   6
BRANCH   5  29
ATOM     29  CB  CYS A   3     -13.485 -21.778   1.554  0.00  0.00    +0.098 C 
ATOM     30  SG  CYS A   3     -14.505 -22.000   0.062  0.00  0.00    -0.080 S 
ENDBRANCH   5  29
ENDBRANCH   2   5
BRANCH   1  31
ATOM     31  CA  TYR A   2      -9.954 -20.142  -1.214  0.00  0.00    +0.153 C 
BRANCH  31  33
ATOM     32  C   LYS A   1     -10.490 -19.647  -3.556  0.00  0.00    +0.238 C 
ATOM     33  N   TYR A   2      -9.966 -19.260  -2.394  0.00  0.00    -0.297 N 
ATOM     34  H   TYR A   2      -9.554 -18.308  -2.318  0.00  0.00    +0.150 HD
ATOM     35  O   LYS A   1     -11.099 -20.723  -3.707  0.00  0.00    -0.274 OA
BRANCH  32  36
ATOM     36  CA  LYS A   1     -10.259 -18.716  -4.752  0.00  0.00    +0.145 C 
BRANCH  36  37
ATOM     37  N   LYS A   1     -10.517 -17.297  -4.510  0.00  0.00    -0.238 NA
ATOM     38  H   LYS A   1     -10.145 -16.849  -3.648  0.00  0.00    +0.142 HD
ENDBRANCH  36  37
BRANCH  36  39
ATOM     39  CB  LYS A   1      -8.830 -18.894  -5.255  0.00  0.00    +0.026 C 
BRANCH  39  40
ATOM     40  CG  LYS A   1      -8.449 -20.333  -5.541  0.00  0.00    -0.000 C 
BRANCH  40  41
ATOM     41  CD  LYS A   1      -7.119 -20.429  -6.250  0.00  0.00    -0.024 C 
BRANCH  41  42
ATOM     42  CE  LYS A   1      -6.717 -21.884  -6.427  0.00  0.00    -0.086 C 
BRANCH  42  43
ATOM     43  NZ  LYS A   1      -5.378 -21.997  -7.077  0.00  0.00    +0.380 N 
ATOM     44  HZ1 LYS A   1      -4.666 -21.524  -6.485  0.00  0.00    -0.089 HD
ATOM     45  HZ2 LYS A   1      -5.130 -23.001  -7.185  0.00  0.00    -0.089 HD
ATOM     46  HZ3 LYS A   1      -5.409 -21.544  -8.013  0.00  0.00    -0.089 HD
ENDBRANCH  42  43
ENDBRANCH  41  42
ENDBRANCH  40  41
ENDBRANCH  39  40
ENDBRANCH  36  39
ENDBRANCH  32  36
ENDBRANCH  31  33
BRANCH  31  47
ATOM     47  CB  TYR A   2      -8.606 -20.029  -0.485  0.00  0.00    +0.055 C 
BRANCH  47  48
ATOM     48  CG  TYR A   2      -7.469 -20.631  -1.284  0.00  0.00    -0.020 A 
ATOM     49  CD2 TYR A   2      -7.336 -22.009  -1.387  0.00  0.00    -0.001 A 
ATOM     50  CE2 TYR A   2      -6.329 -22.580  -2.146  0.00  0.00    +0.036 A 
ATOM     51  CZ  TYR A   2      -5.436 -21.763  -2.810  0.00  0.00    +0.134 A 
ATOM     52  CE1 TYR A   2      -5.545 -20.391  -2.751  0.00  0.00    +0.036 A 
ATOM     53  CD1 TYR A   2      -6.558 -19.824  -1.985  0.00  0.00    -0.001 A 
BRANCH  51  54
ATOM     54  OH  TYR A   2      -4.440 -22.327  -3.572  0.00  0.00    -0.506 OA
ATOM     55  HH  TYR A   2      -4.497 -23.313  -3.510  0.00  0.00    +0.292 HD
ENDBRANCH  51  54
ENDBRANCH  47  48
ENDBRANCH  31  47
ENDBRANCH   1  31
TORSDOF 23
REMARK  Name = ../refined-set-2016/4ql1/4ql1_pocket.pdb
REMARK  213 active torsions:
REMARK  status: ('A' for Active; 'I' for Inactive)
REMARK    1  A    between atoms: _1  and  _3
REMARK    2  A    between atoms: _3  and  _4
REMARK    3  A    between atoms: _3  and  _6
REMARK    4  A    between atoms: _6  and  _7
REMARK    5  A    between atoms: _7  and  _8
REMARK    6  A    between atoms: _8  and  _9
REMARK    7  A    between atoms: _9  and  _10
REMARK    8  A    between atoms: _14  and  _16
REMARK    9  A    between atoms: _16  and  _17
REMARK   10  A    between atoms: _20  and  _22
REMARK   11  A    between atoms: _22  and  _23
REMARK   12  A    between atoms: _22  and  _25
REMARK   13  A    between atoms: _28  and  _30
REMARK   14  A    between atoms: _30  and  _31
REMARK   15  A    between atoms: _30  and  _33
REMARK   16  A    between atoms: _33  and  _34
REMARK   17  A    between atoms: _36  and  _38
REMARK   18  A    between atoms: _38  and  _39
REMARK   19  A    between atoms: _38  and  _41
REMARK   20  A    between atoms: _41  and  _42
REMARK   21  A    between atoms: _44  and  _46
REMARK   22  A    between atoms: _46  and  _47
REMARK   23  A    between atoms: _46  and  _49
REMARK   24  A    between atoms: _52  and  _54
REMARK   25  A    between atoms: _54  and  _55
REMARK   26  A    between atoms: _54  and  _57
REMARK   27  A    between atoms: _57  and  _58
REMARK   28  A    between atoms: _58  and  _59
REMARK   29  A    between atoms: _59  and  _60
REMARK   30  A    between atoms: _60  and  _61
REMARK   31  A    between atoms: _65  and  _67
REMARK   32  A    between atoms: _67  and  _68
REMARK   33  A    between atoms: _67  and  _70
REMARK   34  A    between atoms: _70  and  _71
REMARK   35  A    between atoms: _73  and  _75
REMARK   36  A    between atoms: _75  and  _76
REMARK   37  A    between atoms: _75  and  _78
REMARK   38  A    between atoms: _78  and  _79
REMARK   39  A    between atoms: _81  and  _83
REMARK   40  A    between atoms: _83  and  _84
REMARK   41  A    between atoms: _87  and  _89
REMARK   42  A    between atoms: _89  and  _90
REMARK   43  A    between atoms: _89  and  _92
REMARK   44  A    between atoms: _92  and  _93
REMARK   45  A    between atoms: _96  and  _98
REMARK   46  A    between atoms: _98  and  _99
REMARK   47  A    between atoms: _98  and  _101
REMARK   48  A    between atoms: _101  and  _102
REMARK   49  A    between atoms: _102  and  _103
REMARK   50  A    between atoms: _103  and  _104
REMARK   51  A    between atoms: _104  and  _105
REMARK   52  A    between atoms: _109  and  _111
REMARK   53  A    between atoms: _111  and  _112
REMARK   54  A    between atoms: _111  and  _114
REMARK   55  A    between atoms: _114  and  _115
REMARK   56  A    between atoms: _118  and  _120
REMARK   57  A    between atoms: _120  and  _121
REMARK   58  A    between atoms: _120  and  _123
REMARK   59  A    between atoms: _123  and  _124
REMARK   60  A    between atoms: _127  and  _129
REMARK   61  A    between atoms: _129  and  _130
REMARK   62  A    between atoms: _132  and  _134
REMARK   63  A    between atoms: _134  and  _135
REMARK   64  A    between atoms: _134  and  _137
REMARK   65  A    between atoms: _137  and  _138
REMARK   66  A    between atoms: _141  and  _143
REMARK   67  A    between atoms: _143  and  _144
REMARK   68  A    between atoms: _143  and  _146
REMARK   69  A    between atoms: _146  and  _147
REMARK   70  A    between atoms: _149  and  _151
REMARK   71  A    between atoms: _151  and  _152
REMARK   72  A    between atoms: _151  and  _154
REMARK   73  A    between atoms: _154  and  _155
REMARK   74  A    between atoms: _158  and  _160
REMARK   75  A    between atoms: _160  and  _161
REMARK   76  A    between atoms: _160  and  _163
REMARK   77  A    between atoms: _166  and  _168
REMARK   78  A    between atoms: _168  and  _169
REMARK   79  A    between atoms: _172  and  _174
REMARK   80  A    between atoms: _174  and  _175
REMARK   81  A    between atoms: _174  and  _177
REMARK   82  A    between atoms: _177  and  _178
REMARK   83  A    between atoms: _180  and  _182
REMARK   84  A    between atoms: _182  and  _183
REMARK   85  A    between atoms: _182  and  _185
REMARK   86  A    between atoms: _185  and  _186
REMARK   87  A    between atoms: _189  and  _191
REMARK   88  A    between atoms: _191  and  _192
REMARK   89  A    between atoms: _191  and  _194
REMARK   90  A    between atoms: _194  and  _195
REMARK   91  A    between atoms: _198  and  _200
REMARK   92  A    between atoms: _200  and  _201
REMARK   93  A    between atoms: _200  and  _203
REMARK   94  A    between atoms: _203  and  _204
REMARK   95  A    between atoms: _209  and  _210
REMARK   96  A    between atoms: _212  and  _214
REMARK   97  A    between atoms: _214  and  _215
REMARK   98  A    between atoms: _214  and  _217
REMARK   99  A    between atoms: _220  and  _222
REMARK  100  A    between atoms: _222  and  _223
REMARK  101  A    between atoms: _222  and  _225
REMARK  102  A    between atoms: _225  and  _226
REMARK  103  A    between atoms: _232  and  _234
REMARK  104  A    between atoms: _234  and  _235
REMARK  105  A    between atoms: _234  and  _237
REMARK  106  A    between atoms: _239  and  _241
REMARK  107  A    between atoms: _241  and  _242
REMARK  108  A    between atoms: _241  and  _244
REMARK  109  A    between atoms: _246  and  _248
REMARK  110  A    between atoms: _248  and  _249
REMARK  111  A    between atoms: _251  and  _253
REMARK  112  A    between atoms: _253  and  _254
REMARK  113  A    between atoms: _253  and  _256
REMARK  114  A    between atoms: _256  and  _257
REMARK  115  A    between atoms: _259  and  _261
REMARK  116  A    between atoms: _261  and  _262
REMARK  117  A    between atoms: _261  and  _264
REMARK  118  A    between atoms: _264  and  _265
REMARK  119  A    between atoms: _271  and  _273
REMARK  120  A    between atoms: _273  and  _274
REMARK  121  A    between atoms: _273  and  _276
REMARK  122  A    between atoms: _276  and  _277
REMARK  123  A    between atoms: _281  and  _282
REMARK  124  A    between atoms: _287  and  _289
REMARK  125  A    between atoms: _289  and  _290
REMARK  126  A    between atoms: _289  and  _292
REMARK  127  A    between atoms: _295  and  _297
REMARK  128  A    between atoms: _297  and  _298
REMARK  129  A    between atoms: _297  and  _300
REMARK  130  A    between atoms: _300  and  _301
REMARK  131  A    between atoms: _303  and  _305
REMARK  132  A    between atoms: _305  and  _306
REMARK  133  A    between atoms: _309  and  _311
REMARK  134  A    between atoms: _311  and  _312
REMARK  135  A    between atoms: _311  and  _314
REMARK  136  A    between atoms: _317  and  _319
REMARK  137  A    between atoms: _319  and  _320
REMARK  138  A    between atoms: _319  and  _322
REMARK  139  A    between atoms: _322  and  _323
REMARK  140  A    between atoms: _325  and  _327
REMARK  141  A    between atoms: _327  and  _328
REMARK  142  A    between atoms: _327  and  _330
REMARK  143  A    between atoms: _330  and  _331
REMARK  144  A    between atoms: _333  and  _335
REMARK  145  A    between atoms: _335  and  _336
REMARK  146  A    between atoms: _335  and  _338
REMARK  147  A    between atoms: _338  and  _339
REMARK  148  A    between atoms: _344  and  _345
REMARK  149  A    between atoms: _348  and  _349
REMARK  150  A    between atoms: _354  and  _356
REMARK  151  A    between atoms: _356  and  _357
REMARK  152  A    between atoms: _356  and  _359
REMARK  153  A    between atoms: _362  and  _364
REMARK  154  A    between atoms: _364  and  _365
REMARK  155  A    between atoms: _364  and  _367
REMARK  156  A    between atoms: _367  and  _368
REMARK  157  A    between atoms: _370  and  _372
REMARK  158  A    between atoms: _372  and  _373
REMARK  159  A    between atoms: _372  and  _375
REMARK  160  A    between atoms: _375  and  _376
REMARK  161  A    between atoms: _382  and  _384
REMARK  162  A    between atoms: _384  and  _385
REMARK  163  A    between atoms: _384  and  _387
REMARK  164  A    between atoms: _387  and  _388
REMARK  165  A    between atoms: _391  and  _393
REMARK  166  A    between atoms: _393  and  _394
REMARK  167  A    between atoms: _393  and  _396
REMARK  168  A    between atoms: _396  and  _397
REMARK  169  A    between atoms: _397  and  _398
REMARK  170  A    between atoms: _398  and  _399
REMARK  171  A    between atoms: _399  and  _400
REMARK  172  A    between atoms: _404  and  _406
REMARK  173  A    between atoms: _406  and  _407
REMARK  174  A    between atoms: _406  and  _409
REMARK  175  A    between atoms: _409  and  _410
REMARK  176  A    between atoms: _415  and  _416
REMARK  177  A    between atoms: _418  and  _420
REMARK  178  A    between atoms: _420  and  _421
REMARK  179  A    between atoms: _420  and  _423
REMARK  180  A    between atoms: _425  and  _427
REMARK  181  A    between atoms: _427  and  _428
REMARK  182  A    between atoms: _427  and  _430
REMARK  183  A    between atoms: _430  and  _431
REMARK  184  A    between atoms: _434  and  _436
REMARK  185  A    between atoms: _436  and  _437
REMARK  186  A    between atoms: _436  and  _439
REMARK  187  A    between atoms: _439  and  _440
REMARK  188  A    between atoms: _446  and  _448
REMARK  189  A    between atoms: _448  and  _449
REMARK  190  A    between atoms: _448  and  _451
REMARK  191  A    between atoms: _454  and  _456
REMARK  192  A    between atoms: _456  and  _457
REMARK  193  A    between atoms: _456  and  _459
REMARK  194  A    between atoms: _459  and  _460
REMARK  195  A    between atoms: _463  and  _465
REMARK  196  A    between atoms: _465  and  _466
REMARK  197  A    between atoms: _465  and  _468
REMARK  198  A    between atoms: _468  and  _469
REMARK  199  A    between atoms: _471  and  _473
REMARK  200  A    between atoms: _473  and  _474
REMARK  201  A    between atoms: _473  and  _476
REMARK  202  A    between atoms: _476  and  _477
REMARK  203  A    between atoms: _480  and  _482
REMARK  204  A    between atoms: _482  and  _483
REMARK  205  A    between atoms: _486  and  _488
REMARK  206  A    between atoms: _488  and  _489
REMARK  207  A    between atoms: _488  and  _491
REMARK  208  A    between atoms: _491  and  _492
REMARK  209  A    between atoms: _495  and  _497
REMARK  210  A    between atoms: _497  and  _498
REMARK  211  A    between atoms: _497  and  _500
REMARK  212  A    between atoms: _500  and  _501
REMARK  213  A    between atoms: _501  and  _502
REMARK                            x       y       z     vdW  Elec       q    Type
REMARK                         _______ _______ _______ _____ _____    ______ ____
ROOT
ATOM      1  CA  VAL A   1      -2.521 -17.348   1.703  0.00  0.00    +0.133 C 
ENDROOT
BRANCH   1   2
ATOM      2  CB  VAL A   1      -3.435 -18.197   0.829  0.00  0.00    +0.023 C 
ATOM      3  CG2 VAL A   1      -4.903 -17.945   1.150  0.00  0.00    +0.002 C 
ATOM      4  CG1 VAL A   1      -3.190 -17.931  -0.648  0.00  0.00    +0.002 C 
ENDBRANCH   1   2
BRANCH   1   5
ATOM      5  N   VAL A   1      -1.116 -17.627   1.435  0.00  0.00    -0.239 NA
ATOM      6  H   VAL A   1      -0.874 -18.156   0.573  0.00  0.00    +0.142 HD
ENDBRANCH   1   5
BRANCH   1   7
ATOM      7  C   VAL A   1      -2.878 -17.615   3.162  0.00  0.00    +0.224 C 
ATOM      8  O   VAL A   1      -2.605 -18.698   3.693  0.00  0.00    -0.287 OA
ENDBRANCH   1   7
TORSDOF 3
REMARK  Name = ../refined-set-2016/4ql1/4ql1_pocket.pdb
REMARK  213 active torsions:
REMARK  status: ('A' for Active; 'I' for Inactive)
REMARK    1  A    between atoms: _1  and  _3
REMARK    2  A    between atoms: _3  and  _4
REMARK    3  A    between atoms: _3  and  _6
REMARK    4  A    between atoms: _6  and  _7
REMARK    5  A    between atoms: _7  and  _8
REMARK    6  A    between atoms: _8  and  _9
REMARK    7  A    between atoms: _9  and  _10
REMARK    8  A    between atoms: _14  and  _16
REMARK    9  A    between atoms: _16  and  _17
REMARK   10  A    between atoms: _20  and  _22
REMARK   11  A    between atoms: _22  and  _23
REMARK   12  A    between atoms: _22  and  _25
REMARK   13  A    between atoms: _28  and  _30
REMARK   14  A    between atoms: _30  and  _31
REMARK   15  A    between atoms: _30  and  _33
REMARK   16  A    between atoms: _33  and  _34
REMARK   17  A    between atoms: _36  and  _38
REMARK   18  A    between atoms: _38  and  _39
REMARK   19  A    between atoms: _38  and  _41
REMARK   20  A    between atoms: _41  and  _42
REMARK   21  A    between atoms: _44  and  _46
REMARK   22  A    between atoms: _46  and  _47
REMARK   23  A    between atoms: _46  and  _49
REMARK   24  A    between atoms: _52  and  _54
REMARK   25  A    between atoms: _54  and  _55
REMARK   26  A    between atoms: _54  and  _57
REMARK   27  A    between atoms: _57  and  _58
REMARK   28  A    between atoms: _58  and  _59
REMARK   29  A    between atoms: _59  and  _60
REMARK   30  A    between atoms: _60  and  _61
REMARK   31  A    between atoms: _65  and  _67
REMARK   32  A    between atoms: _67  and  _68
REMARK   33  A    between atoms: _67  and  _70
REMARK   34  A    between atoms: _70  and  _71
REMARK   35  A    between atoms: _73  and  _75
REMARK   36  A    between atoms: _75  and  _76
REMARK   37  A    between atoms: _75  and  _78
REMARK   38  A    between atoms: _78  and  _79
REMARK   39  A    between atoms: _81  and  _83
REMARK   40  A    between atoms: _83  and  _84
REMARK   41  A    between atoms: _87  and  _89
REMARK   42  A    between atoms: _89  and  _90
REMARK   43  A    between atoms: _89  and  _92
REMARK   44  A    between atoms: _92  and  _93
REMARK   45  A    between atoms: _96  and  _98
REMARK   46  A    between atoms: _98  and  _99
REMARK   47  A    between atoms: _98  and  _101
REMARK   48  A    between atoms: _101  and  _102
REMARK   49  A    between atoms: _102  and  _103
REMARK   50  A    between atoms: _103  and  _104
REMARK   51  A    between atoms: _104  and  _105
REMARK   52  A    between atoms: _109  and  _111
REMARK   53  A    between atoms: _111  and  _112
REMARK   54  A    between atoms: _111  and  _114
REMARK   55  A    between atoms: _114  and  _115
REMARK   56  A    between atoms: _118  and  _120
REMARK   57  A    between atoms: _120  and  _121
REMARK   58  A    between atoms: _120  and  _123
REMARK   59  A    between atoms: _123  and  _124
REMARK   60  A    between atoms: _127  and  _129
REMARK   61  A    between atoms: _129  and  _130
REMARK   62  A    between atoms: _132  and  _134
REMARK   63  A    between atoms: _134  and  _135
REMARK   64  A    between atoms: _134  and  _137
REMARK   65  A    between atoms: _137  and  _138
REMARK   66  A    between atoms: _141  and  _143
REMARK   67  A    between atoms: _143  and  _144
REMARK   68  A    between atoms: _143  and  _146
REMARK   69  A    between atoms: _146  and  _147
REMARK   70  A    between atoms: _149  and  _151
REMARK   71  A    between atoms: _151  and  _152
REMARK   72  A    between atoms: _151  and  _154
REMARK   73  A    between atoms: _154  and  _155
REMARK   74  A    between atoms: _158  and  _160
REMARK   75  A    between atoms: _160  and  _161
REMARK   76  A    between atoms: _160  and  _163
REMARK   77  A    between atoms: _166  and  _168
REMARK   78  A    between atoms: _168  and  _169
REMARK   79  A    between atoms: _172  and  _174
REMARK   80  A    between atoms: _174  and  _175
REMARK   81  A    between atoms: _174  and  _177
REMARK   82  A    between atoms: _177  and  _178
REMARK   83  A    between atoms: _180  and  _182
REMARK   84  A    between atoms: _182  and  _183
REMARK   85  A    between atoms: _182  and  _185
REMARK   86  A    between atoms: _185  and  _186
REMARK   87  A    between atoms: _189  and  _191
REMARK   88  A    between atoms: _191  and  _192
REMARK   89  A    between atoms: _191  and  _194
REMARK   90  A    between atoms: _194  and  _195
REMARK   91  A    between atoms: _198  and  _200
REMARK   92  A    between atoms: _200  and  _201
REMARK   93  A    between atoms: _200  and  _203
REMARK   94  A    between atoms: _203  and  _204
REMARK   95  A    between atoms: _209  and  _210
REMARK   96  A    between atoms: _212  and  _214
REMARK   97  A    between atoms: _214  and  _215
REMARK   98  A    between atoms: _214  and  _217
REMARK   99  A    between atoms: _220  and  _222
REMARK  100  A    between atoms: _222  and  _223
REMARK  101  A    between atoms: _222  and  _225
REMARK  102  A    between atoms: _225  and  _226
REMARK  103  A    between atoms: _232  and  _234
REMARK  104  A    between atoms: _234  and  _235
REMARK  105  A    between atoms: _234  and  _237
REMARK  106  A    between atoms: _239  and  _241
REMARK  107  A    between atoms: _241  and  _242
REMARK  108  A    between atoms: _241  and  _244
REMARK  109  A    between atoms: _246  and  _248
REMARK  110  A    between atoms: _248  and  _249
REMARK  111  A    between atoms: _251  and  _253
REMARK  112  A    between atoms: _253  and  _254
REMARK  113  A    between atoms: _253  and  _256
REMARK  114  A    between atoms: _256  and  _257
REMARK  115  A    between atoms: _259  and  _261
REMARK  116  A    between atoms: _261  and  _262
REMARK  117  A    between atoms: _261  and  _264
REMARK  118  A    between atoms: _264  and  _265
REMARK  119  A    between atoms: _271  and  _273
REMARK  120  A    between atoms: _273  and  _274
REMARK  121  A    between atoms: _273  and  _276
REMARK  122  A    between atoms: _276  and  _277
REMARK  123  A    between atoms: _281  and  _282
REMARK  124  A    between atoms: _287  and  _289
REMARK  125  A    between atoms: _289  and  _290
REMARK  126  A    between atoms: _289  and  _292
REMARK  127  A    between atoms: _295  and  _297
REMARK  128  A    between atoms: _297  and  _298
REMARK  129  A    between atoms: _297  and  _300
REMARK  130  A    between atoms: _300  and  _301
REMARK  131  A    between atoms: _303  and  _305
REMARK  132  A    between atoms: _305  and  _306
REMARK  133  A    between atoms: _309  and  _311
REMARK  134  A    between atoms: _311  and  _312
REMARK  135  A    between atoms: _311  and  _314
REMARK  136  A    between atoms: _317  and  _319
REMARK  137  A    between atoms: _319  and  _320
REMARK  138  A    between atoms: _319  and  _322
REMARK  139  A    between atoms: _322  and  _323
REMARK  140  A    between atoms: _325  and  _327
REMARK  141  A    between atoms: _327  and  _328
REMARK  142  A    between atoms: _327  and  _330
REMARK  143  A    between atoms: _330  and  _331
REMARK  144  A    between atoms: _333  and  _335
REMARK  145  A    between atoms: _335  and  _336
REMARK  146  A    between atoms: _335  and  _338
REMARK  147  A    between atoms: _338  and  _339
REMARK  148  A    between atoms: _344  and  _345
REMARK  149  A    between atoms: _348  and  _349
REMARK  150  A    between atoms: _354  and  _356
REMARK  151  A    between atoms: _356  and  _357
REMARK  152  A    between atoms: _356  and  _359
REMARK  153  A    between atoms: _362  and  _364
REMARK  154  A    between atoms: _364  and  _365
REMARK  155  A    between atoms: _364  and  _367
REMARK  156  A    between atoms: _367  and  _368
REMARK  157  A    between atoms: _370  and  _372
REMARK  158  A    between atoms: _372  and  _373
REMARK  159  A    between atoms: _372  and  _375
REMARK  160  A    between atoms: _375  and  _376
REMARK  161  A    between atoms: _382  and  _384
REMARK  162  A    between atoms: _384  and  _385
REMARK  163  A    between atoms: _384  and  _387
REMARK  164  A    between atoms: _387  and  _388
REMARK  165  A    between atoms: _391  and  _393
REMARK  166  A    between atoms: _393  and  _394
REMARK  167  A    between atoms: _393  and  _396
REMARK  168  A    between atoms: _396  and  _397
REMARK  169  A    between atoms: _397  and  _398
REMARK  170  A    between atoms: _398  and  _399
REMARK  171  A    between atoms: _399  and  _400
REMARK  172  A    between atoms: _404  and  _406
REMARK  173  A    between atoms: _406  and  _407
REMARK  174  A    between atoms: _406  and  _409
REMARK  175  A    between atoms: _409  and  _410
REMARK  176  A    between atoms: _415  and  _416
REMARK  177  A    between atoms: _418  and  _420
REMARK  178  A    between atoms: _420  and  _421
REMARK  179  A    between atoms: _420  and  _423
REMARK  180  A    between atoms: _425  and  _427
REMARK  181  A    between atoms: _427  and  _428
REMARK  182  A    between atoms: _427  and  _430
REMARK  183  A    between atoms: _430  and  _431
REMARK  184  A    between atoms: _434  and  _436
REMARK  185  A    between atoms: _436  and  _437
REMARK  186  A    between atoms: _436  and  _439
REMARK  187  A    between atoms: _439  and  _440
REMARK  188  A    between atoms: _446  and  _448
REMARK  189  A    between atoms: _448  and  _449
REMARK  190  A    between atoms: _448  and  _451
REMARK  191  A    between atoms: _454  and  _456
REMARK  192  A    between atoms: _456  and  _457
REMARK  193  A    between atoms: _456  and  _459
REMARK  194  A    between atoms: _459  and  _460
REMARK  195  A    between atoms: _463  and  _465
REMARK  196  A    between atoms: _465  and  _466
REMARK  197  A    between atoms: _465  and  _468
REMARK  198  A    between atoms: _468  and  _469
REMARK  199  A    between atoms: _471  and  _473
REMARK  200  A    between atoms: _473  and  _474
REMARK  201  A    between atoms: _473  and  _476
REMARK  202  A    between atoms: _476  and  _477
REMARK  203  A    between atoms: _480  and  _482
REMARK  204  A    between atoms: _482  and  _483
REMARK  205  A    between atoms: _486  and  _488
REMARK  206  A    between atoms: _488  and  _489
REMARK  207  A    between atoms: _488  and  _491
REMARK  208  A    between atoms: _491  and  _492
REMARK  209  A    between atoms: _495  and  _497
REMARK  210  A    between atoms: _497  and  _498
REMARK  211  A    between atoms: _497  and  _500
REMARK  212  A    between atoms: _500  and  _501
REMARK  213  A    between atoms: _501  and  _502
REMARK                            x       y       z     vdW  Elec       q    Type
REMARK                         _______ _______ _______ _____ _____    ______ ____
ROOT
ATOM      1  CA  SER A   2      -7.932 -19.260   8.701  0.00  0.00    +0.178 C 
ENDROOT
BRANCH   1   3
ATOM      2  C   ILE A   1      -7.737 -19.312   6.284  0.00  0.00    +0.238 C 
ATOM      3  N   SER A   2      -7.155 -19.193   7.468  0.00  0.00    -0.295 N 
ATOM      4  H   SER A   2      -6.126 -19.049   7.520  0.00  0.00    +0.150 HD
ATOM      5  O   ILE A   1      -8.959 -19.414   6.179  0.00  0.00    -0.274 OA
BRANCH   2   6
ATOM      6  CA  ILE A   1      -6.856 -19.281   5.038  0.00  0.00    +0.145 C 
BRANCH   6   7
ATOM      7  N   ILE A   1      -5.562 -18.635   5.259  0.00  0.00    -0.238 NA
ATOM      8  H   ILE A   1      -4.749 -19.218   5.544  0.00  0.00    +0.142 HD
ENDBRANCH   6   7
BRANCH   6   9
ATOM      9  CB  ILE A   1      -6.694 -20.710   4.479  0.00  0.00    +0.025 C 
ATOM     10  CG2 ILE A   1      -6.226 -21.649   5.580  0.00  0.00    +0.002 C 
BRANCH   9  11
ATOM     11  CG1 ILE A   1      -8.020 -21.168   3.839  0.00  0.00    +0.002 C 
ATOM     12  CD1 ILE A   1      -7.963 -22.415   3.008  0.00  0.00    +0.000 C 
ENDBRANCH   9  11
ENDBRANCH   6   9
ENDBRANCH   2   6
ENDBRANCH   1   3
BRANCH   1  13
ATOM     13  C   SER A   2      -7.432 -18.257   9.719  0.00  0.00    +0.243 C 
ATOM     14  N   THR A   3      -8.384 -17.635  10.395  0.00  0.00    -0.296 N 
ATOM     15  H   THR A   3      -9.370 -17.754  10.087  0.00  0.00    +0.150 HD
ATOM     16  O   SER A   2      -6.227 -18.054   9.869  0.00  0.00    -0.273 OA
BRANCH  14  17
ATOM     17  CA  THR A   3      -8.115 -16.799  11.540  0.00  0.00    +0.164 C 
BRANCH  17  18
ATOM     18  C   THR A   3      -9.077 -17.208  12.632  0.00  0.00    +0.229 C 
ATOM     19  O   THR A   3     -10.195 -17.705  12.356  0.00  0.00    -0.286 OA
ENDBRANCH  17  18
BRANCH  17  20
ATOM     20  CB  THR A   3      -8.261 -15.274  11.256  0.00  0.00    +0.136 C 
ATOM     21  CG2 THR A   3      -7.259 -14.820  10.298  0.00  0.00    +0.034 C 
BRANCH  20  22
ATOM     22  OG1 THR A   3      -9.564 -14.990  10.747  0.00  0.00    -0.382 OA
ATOM     23  HG1 THR A   3      -9.705 -15.492   9.905  0.00  0.00    +0.210 HD
ENDBRANCH  20  22
ENDBRANCH  17  20
ENDBRANCH  14  17
ENDBRANCH   1  13
BRANCH   1  24
ATOM     24  CB  SER A   2      -7.869 -20.671   9.316  0.00  0.00    +0.166 C 
BRANCH  24  25
ATOM     25  OG  SER A   2      -8.648 -20.781  10.527  0.00  0.00    -0.380 OA
ATOM     26  H   SER A   2      -9.596 -20.576  10.328  0.00  0.00    +0.211 HD
ENDBRANCH  24  25
ENDBRANCH   1  24
TORSDOF 12
REMARK  Name = ../refined-set-2016/4ql1/4ql1_pocket.pdb
REMARK  213 active torsions:
REMARK  status: ('A' for Active; 'I' for Inactive)
REMARK    1  A    between atoms: _1  and  _3
REMARK    2  A    between atoms: _3  and  _4
REMARK    3  A    between atoms: _3  and  _6
REMARK    4  A    between atoms: _6  and  _7
REMARK    5  A    between atoms: _7  and  _8
REMARK    6  A    between atoms: _8  and  _9
REMARK    7  A    between atoms: _9  and  _10
REMARK    8  A    between atoms: _14  and  _16
REMARK    9  A    between atoms: _16  and  _17
REMARK   10  A    between atoms: _20  and  _22
REMARK   11  A    between atoms: _22  and  _23
REMARK   12  A    between atoms: _22  and  _25
REMARK   13  A    between atoms: _28  and  _30
REMARK   14  A    between atoms: _30  and  _31
REMARK   15  A    between atoms: _30  and  _33
REMARK   16  A    between atoms: _33  and  _34
REMARK   17  A    between atoms: _36  and  _38
REMARK   18  A    between atoms: _38  and  _39
REMARK   19  A    between atoms: _38  and  _41
REMARK   20  A    between atoms: _41  and  _42
REMARK   21  A    between atoms: _44  and  _46
REMARK   22  A    between atoms: _46  and  _47
REMARK   23  A    between atoms: _46  and  _49
REMARK   24  A    between atoms: _52  and  _54
REMARK   25  A    between atoms: _54  and  _55
REMARK   26  A    between atoms: _54  and  _57
REMARK   27  A    between atoms: _57  and  _58
REMARK   28  A    between atoms: _58  and  _59
REMARK   29  A    between atoms: _59  and  _60
REMARK   30  A    between atoms: _60  and  _61
REMARK   31  A    between atoms: _65  and  _67
REMARK   32  A    between atoms: _67  and  _68
REMARK   33  A    between atoms: _67  and  _70
REMARK   34  A    between atoms: _70  and  _71
REMARK   35  A    between atoms: _73  and  _75
REMARK   36  A    between atoms: _75  and  _76
REMARK   37  A    between atoms: _75  and  _78
REMARK   38  A    between atoms: _78  and  _79
REMARK   39  A    between atoms: _81  and  _83
REMARK   40  A    between atoms: _83  and  _84
REMARK   41  A    between atoms: _87  and  _89
REMARK   42  A    between atoms: _89  and  _90
REMARK   43  A    between atoms: _89  and  _92
REMARK   44  A    between atoms: _92  and  _93
REMARK   45  A    between atoms: _96  and  _98
REMARK   46  A    between atoms: _98  and  _99
REMARK   47  A    between atoms: _98  and  _101
REMARK   48  A    between atoms: _101  and  _102
REMARK   49  A    between atoms: _102  and  _103
REMARK   50  A    between atoms: _103  and  _104
REMARK   51  A    between atoms: _104  and  _105
REMARK   52  A    between atoms: _109  and  _111
REMARK   53  A    between atoms: _111  and  _112
REMARK   54  A    between atoms: _111  and  _114
REMARK   55  A    between atoms: _114  and  _115
REMARK   56  A    between atoms: _118  and  _120
REMARK   57  A    between atoms: _120  and  _121
REMARK   58  A    between atoms: _120  and  _123
REMARK   59  A    between atoms: _123  and  _124
REMARK   60  A    between atoms: _127  and  _129
REMARK   61  A    between atoms: _129  and  _130
REMARK   62  A    between atoms: _132  and  _134
REMARK   63  A    between atoms: _134  and  _135
REMARK   64  A    between atoms: _134  and  _137
REMARK   65  A    between atoms: _137  and  _138
REMARK   66  A    between atoms: _141  and  _143
REMARK   67  A    between atoms: _143  and  _144
REMARK   68  A    between atoms: _143  and  _146
REMARK   69  A    between atoms: _146  and  _147
REMARK   70  A    between atoms: _149  and  _151
REMARK   71  A    between atoms: _151  and  _152
REMARK   72  A    between atoms: _151  and  _154
REMARK   73  A    between atoms: _154  and  _155
REMARK   74  A    between atoms: _158  and  _160
REMARK   75  A    between atoms: _160  and  _161
REMARK   76  A    between atoms: _160  and  _163
REMARK   77  A    between atoms: _166  and  _168
REMARK   78  A    between atoms: _168  and  _169
REMARK   79  A    between atoms: _172  and  _174
REMARK   80  A    between atoms: _174  and  _175
REMARK   81  A    between atoms: _174  and  _177
REMARK   82  A    between atoms: _177  and  _178
REMARK   83  A    between atoms: _180  and  _182
REMARK   84  A    between atoms: _182  and  _183
REMARK   85  A    between atoms: _182  and  _185
REMARK   86  A    between atoms: _185  and  _186
REMARK   87  A    between atoms: _189  and  _191
REMARK   88  A    between atoms: _191  and  _192
REMARK   89  A    between atoms: _191  and  _194
REMARK   90  A    between atoms: _194  and  _195
REMARK   91  A    between atoms: _198  and  _200
REMARK   92  A    between atoms: _200  and  _201
REMARK   93  A    between atoms: _200  and  _203
REMARK   94  A    between atoms: _203  and  _204
REMARK   95  A    between atoms: _209  and  _210
REMARK   96  A    between atoms: _212  and  _214
REMARK   97  A    between atoms: _214  and  _215
REMARK   98  A    between atoms: _214  and  _217
REMARK   99  A    between atoms: _220  and  _222
REMARK  100  A    between atoms: _222  and  _223
REMARK  101  A    between atoms: _222  and  _225
REMARK  102  A    between atoms: _225  and  _226
REMARK  103  A    between atoms: _232  and  _234
REMARK  104  A    between atoms: _234  and  _235
REMARK  105  A    between atoms: _234  and  _237
REMARK  106  A    between atoms: _239  and  _241
REMARK  107  A    between atoms: _241  and  _242
REMARK  108  A    between atoms: _241  and  _244
REMARK  109  A    between atoms: _246  and  _248
REMARK  110  A    between atoms: _248  and  _249
REMARK  111  A    between atoms: _251  and  _253
REMARK  112  A    between atoms: _253  and  _254
REMARK  113  A    between atoms: _253  and  _256
REMARK  114  A    between atoms: _256  and  _257
REMARK  115  A    between atoms: _259  and  _261
REMARK  116  A    between atoms: _261  and  _262
REMARK  117  A    between atoms: _261  and  _264
REMARK  118  A    between atoms: _264  and  _265
REMARK  119  A    between atoms: _271  and  _273
REMARK  120  A    between atoms: _273  and  _274
REMARK  121  A    between atoms: _273  and  _276
REMARK  122  A    between atoms: _276  and  _277
REMARK  123  A    between atoms: _281  and  _282
REMARK  124  A    between atoms: _287  and  _289
REMARK  125  A    between atoms: _289  and  _290
REMARK  126  A    between atoms: _289  and  _292
REMARK  127  A    between atoms: _295  and  _297
REMARK  128  A    between atoms: _297  and  _298
REMARK  129  A    between atoms: _297  and  _300
REMARK  130  A    between atoms: _300  and  _301
REMARK  131  A    between atoms: _303  and  _305
REMARK  132  A    between atoms: _305  and  _306
REMARK  133  A    between atoms: _309  and  _311
REMARK  134  A    between atoms: _311  and  _312
REMARK  135  A    between atoms: _311  and  _314
REMARK  136  A    between atoms: _317  and  _319
REMARK  137  A    between atoms: _319  and  _320
REMARK  138  A    between atoms: _319  and  _322
REMARK  139  A    between atoms: _322  and  _323
REMARK  140  A    between atoms: _325  and  _327
REMARK  141  A    between atoms: _327  and  _328
REMARK  142  A    between atoms: _327  and  _330
REMARK  143  A    between atoms: _330  and  _331
REMARK  144  A    between atoms: _333  and  _335
REMARK  145  A    between atoms: _335  and  _336
REMARK  146  A    between atoms: _335  and  _338
REMARK  147  A    between atoms: _338  and  _339
REMARK  148  A    between atoms: _344  and  _345
REMARK  149  A    between atoms: _348  and  _349
REMARK  150  A    between atoms: _354  and  _356
REMARK  151  A    between atoms: _356  and  _357
REMARK  152  A    between atoms: _356  and  _359
REMARK  153  A    between atoms: _362  and  _364
REMARK  154  A    between atoms: _364  and  _365
REMARK  155  A    between atoms: _364  and  _367
REMARK  156  A    between atoms: _367  and  _368
REMARK  157  A    between atoms: _370  and  _372
REMARK  158  A    between atoms: _372  and  _373
REMARK  159  A    between atoms: _372  and  _375
REMARK  160  A    between atoms: _375  and  _376
REMARK  161  A    between atoms: _382  and  _384
REMARK  162  A    between atoms: _384  and  _385
REMARK  163  A    between atoms: _384  and  _387
REMARK  164  A    between atoms: _387  and  _388
REMARK  165  A    between atoms: _391  and  _393
REMARK  166  A    between atoms: _393  and  _394
REMARK  167  A    between atoms: _393  and  _396
REMARK  168  A    between atoms: _396  and  _397
REMARK  169  A    between atoms: _397  and  _398
REMARK  170  A    between atoms: _398  and  _399
REMARK  171  A    between atoms: _399  and  _400
REMARK  172  A    between atoms: _404  and  _406
REMARK  173  A    between atoms: _406  and  _407
REMARK  174  A    between atoms: _406  and  _409
REMARK  175  A    between atoms: _409  and  _410
REMARK  176  A    between atoms: _415  and  _416
REMARK  177  A    between atoms: _418  and  _420
REMARK  178  A    between atoms: _420  and  _421
REMARK  179  A    between atoms: _420  and  _423
REMARK  180  A    between atoms: _425  and  _427
REMARK  181  A    between atoms: _427  and  _428
REMARK  182  A    between atoms: _427  and  _430
REMARK  183  A    between atoms: _430  and  _431
REMARK  184  A    between atoms: _434  and  _436
REMARK  185  A    between atoms: _436  and  _437
REMARK  186  A    between atoms: _436  and  _439
REMARK  187  A    between atoms: _439  and  _440
REMARK  188  A    between atoms: _446  and  _448
REMARK  189  A    between atoms: _448  and  _449
REMARK  190  A    between atoms: _448  and  _451
REMARK  191  A    between atoms: _454  and  _456
REMARK  192  A    between atoms: _456  and  _457
REMARK  193  A    between atoms: _456  and  _459
REMARK  194  A    between atoms: _459  and  _460
REMARK  195  A    between atoms: _463  and  _465
REMARK  196  A    between atoms: _465  and  _466
REMARK  197  A    between atoms: _465  and  _468
REMARK  198  A    between atoms: _468  and  _469
REMARK  199  A    between atoms: _471  and  _473
REMARK  200  A    between atoms: _473  and  _474
REMARK  201  A    between atoms: _473  and  _476
REMARK  202  A    between atoms: _476  and  _477
REMARK  203  A    between atoms: _480  and  _482
REMARK  204  A    between atoms: _482  and  _483
REMARK  205  A    between atoms: _486  and  _488
REMARK  206  A    between atoms: _488  and  _489
REMARK  207  A    between atoms: _488  and  _491
REMARK  208  A    between atoms: _491  and  _492
REMARK  209  A    between atoms: _495  and  _497
REMARK  210  A    between atoms: _497  and  _498
REMARK  211  A    between atoms: _497  and  _500
REMARK  212  A    between atoms: _500  and  _501
REMARK  213  A    between atoms: _501  and  _502
REMARK                            x       y       z     vdW  Elec       q    Type
REMARK                         _______ _______ _______ _____ _____    ______ ____
ROOT
ATOM      1  CA  LEU A   2      -1.051 -22.492   3.116  0.00  0.00    +0.149 C 
ENDROOT
BRANCH   1   4
ATOM      2  C   ALA A   1      -1.103 -21.488   5.346  0.00  0.00    +0.238 C 
ATOM      3  O   ALA A   1      -0.835 -22.547   5.928  0.00  0.00    -0.274 OA
ATOM      4  N   LEU A   2      -1.181 -21.362   4.020  0.00  0.00    -0.297 N 
ATOM      5  H   LEU A   2      -1.341 -20.417   3.617  0.00  0.00    +0.150 HD
BRANCH   2   6
ATOM      6  CA  ALA A   1      -1.391 -20.201   6.097  0.00  0.00    +0.145 C 
ATOM      7  CB  ALA A   1      -0.251 -19.206   5.859  0.00  0.00    +0.028 C 
BRANCH   6   8
ATOM      8  N   ALA A   1      -1.626 -20.354   7.522  0.00  0.00    -0.238 NA
ATOM      9  H   ALA A   1      -0.926 -20.863   8.098  0.00  0.00    +0.142 HD
ENDBRANCH   6   8
ENDBRANCH   2   6
ENDBRANCH   1   4
BRANCH   1  10
ATOM     10  C   LEU A   2       0.408 -22.912   2.896  0.00  0.00    +0.241 C 
ATOM     11  O   LEU A   2       1.289 -22.462   3.615  0.00  0.00    -0.273 OA
ATOM     12  N   GLU A   3       0.646 -23.803   1.928  0.00  0.00    -0.298 N 
ATOM     13  H   GLU A   3      -0.036 -23.910   1.150  0.00  0.00    +0.150 HD
BRANCH  12  14
ATOM     14  CA  GLU A   3       1.863 -24.637   1.948  0.00  0.00    +0.137 C 
BRANCH  14  15
ATOM     15  C   GLU A   3       3.217 -23.975   1.715  0.00  0.00    +0.227 C 
ATOM     16  O   GLU A   3       4.219 -24.619   1.991  0.00  0.00    -0.286 OA
ENDBRANCH  14  15
BRANCH  14  17
ATOM     17  CB  GLU A   3       1.718 -25.840   1.024  0.00  0.00    +0.039 C 
BRANCH  17  18
ATOM     18  CG  GLU A   3       1.704 -25.522  -0.456  0.00  0.00    +0.116 C 
BRANCH  18  19
ATOM     19  CD  GLU A   3       0.318 -25.326  -1.011  0.00  0.00    +0.365 C 
ATOM     20  OE2 GLU A   3      -0.585 -24.903  -0.253  0.00  0.00    -0.246 OA
ATOM     21  OE1 GLU A   3       0.141 -25.588  -2.219  0.00  0.00    -0.246 OA
ENDBRANCH  18  19
ENDBRANCH  17  18
ENDBRANCH  14  17
ENDBRANCH  12  14
ENDBRANCH   1  10
BRANCH   1  22
ATOM     22  CB  LEU A   2      -1.789 -22.193   1.803  0.00  0.00    +0.029 C 
BRANCH  22  23
ATOM     23  CG  LEU A   2      -3.291 -21.915   1.937  0.00  0.00    +0.002 C 
ATOM     24  CD2 LEU A   2      -4.026 -23.040   2.662  0.00  0.00    +0.000 C 
ATOM     25  CD1 LEU A   2      -3.886 -21.669   0.550  0.00  0.00    +0.000 C 
ENDBRANCH  22  23
ENDBRANCH   1  22
TORSDOF 11
REMARK  Name = ../refined-set-2016/4ql1/4ql1_pocket.pdb
REMARK  213 active torsions:
REMARK  status: ('A' for Active; 'I' for Inactive)
REMARK    1  A    between atoms: _1  and  _3
REMARK    2  A    between atoms: _3  and  _4
REMARK    3  A    between atoms: _3  and  _6
REMARK    4  A    between atoms: _6  and  _7
REMARK    5  A    between atoms: _7  and  _8
REMARK    6  A    between atoms: _8  and  _9
REMARK    7  A    between atoms: _9  and  _10
REMARK    8  A    between atoms: _14  and  _16
REMARK    9  A    between atoms: _16  and  _17
REMARK   10  A    between atoms: _20  and  _22
REMARK   11  A    between atoms: _22  and  _23
REMARK   12  A    between atoms: _22  and  _25
REMARK   13  A    between atoms: _28  and  _30
REMARK   14  A    between atoms: _30  and  _31
REMARK   15  A    between atoms: _30  and  _33
REMARK   16  A    between atoms: _33  and  _34
REMARK   17  A    between atoms: _36  and  _38
REMARK   18  A    between atoms: _38  and  _39
REMARK   19  A    between atoms: _38  and  _41
REMARK   20  A    between atoms: _41  and  _42
REMARK   21  A    between atoms: _44  and  _46
REMARK   22  A    between atoms: _46  and  _47
REMARK   23  A    between atoms: _46  and  _49
REMARK   24  A    between atoms: _52  and  _54
REMARK   25  A    between atoms: _54  and  _55
REMARK   26  A    between atoms: _54  and  _57
REMARK   27  A    between atoms: _57  and  _58
REMARK   28  A    between atoms: _58  and  _59
REMARK   29  A    between atoms: _59  and  _60
REMARK   30  A    between atoms: _60  and  _61
REMARK   31  A    between atoms: _65  and  _67
REMARK   32  A    between atoms: _67  and  _68
REMARK   33  A    between atoms: _67  and  _70
REMARK   34  A    between atoms: _70  and  _71
REMARK   35  A    between atoms: _73  and  _75
REMARK   36  A    between atoms: _75  and  _76
REMARK   37  A    between atoms: _75  and  _78
REMARK   38  A    between atoms: _78  and  _79
REMARK   39  A    between atoms: _81  and  _83
REMARK   40  A    between atoms: _83  and  _84
REMARK   41  A    between atoms: _87  and  _89
REMARK   42  A    between atoms: _89  and  _90
REMARK   43  A    between atoms: _89  and  _92
REMARK   44  A    between atoms: _92  and  _93
REMARK   45  A    between atoms: _96  and  _98
REMARK   46  A    between atoms: _98  and  _99
REMARK   47  A    between atoms: _98  and  _101
REMARK   48  A    between atoms: _101  and  _102
REMARK   49  A    between atoms: _102  and  _103
REMARK   50  A    between atoms: _103  and  _104
REMARK   51  A    between atoms: _104  and  _105
REMARK   52  A    between atoms: _109  and  _111
REMARK   53  A    between atoms: _111  and  _112
REMARK   54  A    between atoms: _111  and  _114
REMARK   55  A    between atoms: _114  and  _115
REMARK   56  A    between atoms: _118  and  _120
REMARK   57  A    between atoms: _120  and  _121
REMARK   58  A    between atoms: _120  and  _123
REMARK   59  A    between atoms: _123  and  _124
REMARK   60  A    between atoms: _127  and  _129
REMARK   61  A    between atoms: _129  and  _130
REMARK   62  A    between atoms: _132  and  _134
REMARK   63  A    between atoms: _134  and  _135
REMARK   64  A    between atoms: _134  and  _137
REMARK   65  A    between atoms: _137  and  _138
REMARK   66  A    between atoms: _141  and  _143
REMARK   67  A    between atoms: _143  and  _144
REMARK   68  A    between atoms: _143  and  _146
REMARK   69  A    between atoms: _146  and  _147
REMARK   70  A    between atoms: _149  and  _151
REMARK   71  A    between atoms: _151  and  _152
REMARK   72  A    between atoms: _151  and  _154
REMARK   73  A    between atoms: _154  and  _155
REMARK   74  A    between atoms: _158  and  _160
REMARK   75  A    between atoms: _160  and  _161
REMARK   76  A    between atoms: _160  and  _163
REMARK   77  A    between atoms: _166  and  _168
REMARK   78  A    between atoms: _168  and  _169
REMARK   79  A    between atoms: _172  and  _174
REMARK   80  A    between atoms: _174  and  _175
REMARK   81  A    between atoms: _174  and  _177
REMARK   82  A    between atoms: _177  and  _178
REMARK   83  A    between atoms: _180  and  _182
REMARK   84  A    between atoms: _182  and  _183
REMARK   85  A    between atoms: _182  and  _185
REMARK   86  A    between atoms: _185  and  _186
REMARK   87  A    between atoms: _189  and  _191
REMARK   88  A    between atoms: _191  and  _192
REMARK   89  A    between atoms: _191  and  _194
REMARK   90  A    between atoms: _194  and  _195
REMARK   91  A    between atoms: _198  and  _200
REMARK   92  A    between atoms: _200  and  _201
REMARK   93  A    between atoms: _200  and  _203
REMARK   94  A    between atoms: _203  and  _204
REMARK   95  A    between atoms: _209  and  _210
REMARK   96  A    between atoms: _212  and  _214
REMARK   97  A    between atoms: _214  and  _215
REMARK   98  A    between atoms: _214  and  _217
REMARK   99  A    between atoms: _220  and  _222
REMARK  100  A    between atoms: _222  and  _223
REMARK  101  A    between atoms: _222  and  _225
REMARK  102  A    between atoms: _225  and  _226
REMARK  103  A    between atoms: _232  and  _234
REMARK  104  A    between atoms: _234  and  _235
REMARK  105  A    between atoms: _234  and  _237
REMARK  106  A    between atoms: _239  and  _241
REMARK  107  A    between atoms: _241  and  _242
REMARK  108  A    between atoms: _241  and  _244
REMARK  109  A    between atoms: _246  and  _248
REMARK  110  A    between atoms: _248  and  _249
REMARK  111  A    between atoms: _251  and  _253
REMARK  112  A    between atoms: _253  and  _254
REMARK  113  A    between atoms: _253  and  _256
REMARK  114  A    between atoms: _256  and  _257
REMARK  115  A    between atoms: _259  and  _261
REMARK  116  A    between atoms: _261  and  _262
REMARK  117  A    between atoms: _261  and  _264
REMARK  118  A    between atoms: _264  and  _265
REMARK  119  A    between atoms: _271  and  _273
REMARK  120  A    between atoms: _273  and  _274
REMARK  121  A    between atoms: _273  and  _276
REMARK  122  A    between atoms: _276  and  _277
REMARK  123  A    between atoms: _281  and  _282
REMARK  124  A    between atoms: _287  and  _289
REMARK  125  A    between atoms: _289  and  _290
REMARK  126  A    between atoms: _289  and  _292
REMARK  127  A    between atoms: _295  and  _297
REMARK  128  A    between atoms: _297  and  _298
REMARK  129  A    between atoms: _297  and  _300
REMARK  130  A    between atoms: _300  and  _301
REMARK  131  A    between atoms: _303  and  _305
REMARK  132  A    between atoms: _305  and  _306
REMARK  133  A    between atoms: _309  and  _311
REMARK  134  A    between atoms: _311  and  _312
REMARK  135  A    between atoms: _311  and  _314
REMARK  136  A    between atoms: _317  and  _319
REMARK  137  A    between atoms: _319  and  _320
REMARK  138  A    between atoms: _319  and  _322
REMARK  139  A    between atoms: _322  and  _323
REMARK  140  A    between atoms: _325  and  _327
REMARK  141  A    between atoms: _327  and  _328
REMARK  142  A    between atoms: _327  and  _330
REMARK  143  A    between atoms: _330  and  _331
REMARK  144  A    between atoms: _333  and  _335
REMARK  145  A    between atoms: _335  and  _336
REMARK  146  A    between atoms: _335  and  _338
REMARK  147  A    between atoms: _338  and  _339
REMARK  148  A    between atoms: _344  and  _345
REMARK  149  A    between atoms: _348  and  _349
REMARK  150  A    between atoms: _354  and  _356
REMARK  151  A    between atoms: _356  and  _357
REMARK  152  A    between atoms: _356  and  _359
REMARK  153  A    between atoms: _362  and  _364
REMARK  154  A    between atoms: _364  and  _365
REMARK  155  A    between atoms: _364  and  _367
REMARK  156  A    between atoms: _367  and  _368
REMARK  157  A    between atoms: _370  and  _372
REMARK  158  A    between atoms: _372  and  _373
REMARK  159  A    between atoms: _372  and  _375
REMARK  160  A    between atoms: _375  and  _376
REMARK  161  A    between atoms: _382  and  _384
REMARK  162  A    between atoms: _384  and  _385
REMARK  163  A    between atoms: _384  and  _387
REMARK  164  A    between atoms: _387  and  _388
REMARK  165  A    between atoms: _391  and  _393
REMARK  166  A    between atoms: _393  and  _394
REMARK  167  A    between atoms: _393  and  _396
REMARK  168  A    between atoms: _396  and  _397
REMARK  169  A    between atoms: _397  and  _398
REMARK  170  A    between atoms: _398  and  _399
REMARK  171  A    between atoms: _399  and  _400
REMARK  172  A    between atoms: _404  and  _406
REMARK  173  A    between atoms: _406  and  _407
REMARK  174  A    between atoms: _406  and  _409
REMARK  175  A    between atoms: _409  and  _410
REMARK  176  A    between atoms: _415  and  _416
REMARK  177  A    between atoms: _418  and  _420
REMARK  178  A    between atoms: _420  and  _421
REMARK  179  A    between atoms: _420  and  _423
REMARK  180  A    between atoms: _425  and  _427
REMARK  181  A    between atoms: _427  and  _428
REMARK  182  A    between atoms: _427  and  _430
REMARK  183  A    between atoms: _430  and  _431
REMARK  184  A    between atoms: _434  and  _436
REMARK  185  A    between atoms: _436  and  _437
REMARK  186  A    between atoms: _436  and  _439
REMARK  187  A    between atoms: _439  and  _440
REMARK  188  A    between atoms: _446  and  _448
REMARK  189  A    between atoms: _448  and  _449
REMARK  190  A    between atoms: _448  and  _451
REMARK  191  A    between atoms: _454  and  _456
REMARK  192  A    between atoms: _456  and  _457
REMARK  193  A    between atoms: _456  and  _459
REMARK  194  A    between atoms: _459  and  _460
REMARK  195  A    between atoms: _463  and  _465
REMARK  196  A    between atoms: _465  and  _466
REMARK  197  A    between atoms: _465  and  _468
REMARK  198  A    between atoms: _468  and  _469
REMARK  199  A    between atoms: _471  and  _473
REMARK  200  A    between atoms: _473  and  _474
REMARK  201  A    between atoms: _473  and  _476
REMARK  202  A    between atoms: _476  and  _477
REMARK  203  A    between atoms: _480  and  _482
REMARK  204  A    between atoms: _482  and  _483
REMARK  205  A    between atoms: _486  and  _488
REMARK  206  A    between atoms: _488  and  _489
REMARK  207  A    between atoms: _488  and  _491
REMARK  208  A    between atoms: _491  and  _492
REMARK  209  A    between atoms: _495  and  _497
REMARK  210  A    between atoms: _497  and  _498
REMARK  211  A    between atoms: _497  and  _500
REMARK  212  A    between atoms: _500  and  _501
REMARK  213  A    between atoms: _501  and  _502
REMARK                            x       y       z     vdW  Elec       q    Type
REMARK                         _______ _______ _______ _____ _____    ______ ____
ROOT
ATOM      1  O   HOH     1     -10.594 -23.449   0.107  0.00  0.00    +0.000 OA
ENDROOT
TORSDOF 0
REMARK  Name = ../refined-set-2016/4ql1/4ql1_pocket.pdb
REMARK  213 active torsions:
REMARK  status: ('A' for Active; 'I' for Inactive)
REMARK    1  A    between atoms: _1  and  _3
REMARK    2  A    between atoms: _3  and  _4
REMARK    3  A    between atoms: _3  and  _6
REMARK    4  A    between atoms: _6  and  _7
REMARK    5  A    between atoms: _7  and  _8
REMARK    6  A    between atoms: _8  and  _9
REMARK    7  A    between atoms: _9  and  _10
REMARK    8  A    between atoms: _14  and  _16
REMARK    9  A    between atoms: _16  and  _17
REMARK   10  A    between atoms: _20  and  _22
REMARK   11  A    between atoms: _22  and  _23
REMARK   12  A    between atoms: _22  and  _25
REMARK   13  A    between atoms: _28  and  _30
REMARK   14  A    between atoms: _30  and  _31
REMARK   15  A    between atoms: _30  and  _33
REMARK   16  A    between atoms: _33  and  _34
REMARK   17  A    between atoms: _36  and  _38
REMARK   18  A    between atoms: _38  and  _39
REMARK   19  A    between atoms: _38  and  _41
REMARK   20  A    between atoms: _41  and  _42
REMARK   21  A    between atoms: _44  and  _46
REMARK   22  A    between atoms: _46  and  _47
REMARK   23  A    between atoms: _46  and  _49
REMARK   24  A    between atoms: _52  and  _54
REMARK   25  A    between atoms: _54  and  _55
REMARK   26  A    between atoms: _54  and  _57
REMARK   27  A    between atoms: _57  and  _58
REMARK   28  A    between atoms: _58  and  _59
REMARK   29  A    between atoms: _59  and  _60
REMARK   30  A    between atoms: _60  and  _61
REMARK   31  A    between atoms: _65  and  _67
REMARK   32  A    between atoms: _67  and  _68
REMARK   33  A    between atoms: _67  and  _70
REMARK   34  A    between atoms: _70  and  _71
REMARK   35  A    between atoms: _73  and  _75
REMARK   36  A    between atoms: _75  and  _76
REMARK   37  A    between atoms: _75  and  _78
REMARK   38  A    between atoms: _78  and  _79
REMARK   39  A    between atoms: _81  and  _83
REMARK   40  A    between atoms: _83  and  _84
REMARK   41  A    between atoms: _87  and  _89
REMARK   42  A    between atoms: _89  and  _90
REMARK   43  A    between atoms: _89  and  _92
REMARK   44  A    between atoms: _92  and  _93
REMARK   45  A    between atoms: _96  and  _98
REMARK   46  A    between atoms: _98  and  _99
REMARK   47  A    between atoms: _98  and  _101
REMARK   48  A    between atoms: _101  and  _102
REMARK   49  A    between atoms: _102  and  _103
REMARK   50  A    between atoms: _103  and  _104
REMARK   51  A    between atoms: _104  and  _105
REMARK   52  A    between atoms: _109  and  _111
REMARK   53  A    between atoms: _111  and  _112
REMARK   54  A    between atoms: _111  and  _114
REMARK   55  A    between atoms: _114  and  _115
REMARK   56  A    between atoms: _118  and  _120
REMARK   57  A    between atoms: _120  and  _121
REMARK   58  A    between atoms: _120  and  _123
REMARK   59  A    between atoms: _123  and  _124
REMARK   60  A    between atoms: _127  and  _129
REMARK   61  A    between atoms: _129  and  _130
REMARK   62  A    between atoms: _132  and  _134
REMARK   63  A    between atoms: _134  and  _135
REMARK   64  A    between atoms: _134  and  _137
REMARK   65  A    between atoms: _137  and  _138
REMARK   66  A    between atoms: _141  and  _143
REMARK   67  A    between atoms: _143  and  _144
REMARK   68  A    between atoms: _143  and  _146
REMARK   69  A    between atoms: _146  and  _147
REMARK   70  A    between atoms: _149  and  _151
REMARK   71  A    between atoms: _151  and  _152
REMARK   72  A    between atoms: _151  and  _154
REMARK   73  A    between atoms: _154  and  _155
REMARK   74  A    between atoms: _158  and  _160
REMARK   75  A    between atoms: _160  and  _161
REMARK   76  A    between atoms: _160  and  _163
REMARK   77  A    between atoms: _166  and  _168
REMARK   78  A    between atoms: _168  and  _169
REMARK   79  A    between atoms: _172  and  _174
REMARK   80  A    between atoms: _174  and  _175
REMARK   81  A    between atoms: _174  and  _177
REMARK   82  A    between atoms: _177  and  _178
REMARK   83  A    between atoms: _180  and  _182
REMARK   84  A    between atoms: _182  and  _183
REMARK   85  A    between atoms: _182  and  _185
REMARK   86  A    between atoms: _185  and  _186
REMARK   87  A    between atoms: _189  and  _191
REMARK   88  A    between atoms: _191  and  _192
REMARK   89  A    between atoms: _191  and  _194
REMARK   90  A    between atoms: _194  and  _195
REMARK   91  A    between atoms: _198  and  _200
REMARK   92  A    between atoms: _200  and  _201
REMARK   93  A    between atoms: _200  and  _203
REMARK   94  A    between atoms: _203  and  _204
REMARK   95  A    between atoms: _209  and  _210
REMARK   96  A    between atoms: _212  and  _214
REMARK   97  A    between atoms: _214  and  _215
REMARK   98  A    between atoms: _214  and  _217
REMARK   99  A    between atoms: _220  and  _222
REMARK  100  A    between atoms: _222  and  _223
REMARK  101  A    between atoms: _222  and  _225
REMARK  102  A    between atoms: _225  and  _226
REMARK  103  A    between atoms: _232  and  _234
REMARK  104  A    between atoms: _234  and  _235
REMARK  105  A    between atoms: _234  and  _237
REMARK  106  A    between atoms: _239  and  _241
REMARK  107  A    between atoms: _241  and  _242
REMARK  108  A    between atoms: _241  and  _244
REMARK  109  A    between atoms: _246  and  _248
REMARK  110  A    between atoms: _248  and  _249
REMARK  111  A    between atoms: _251  and  _253
REMARK  112  A    between atoms: _253  and  _254
REMARK  113  A    between atoms: _253  and  _256
REMARK  114  A    between atoms: _256  and  _257
REMARK  115  A    between atoms: _259  and  _261
REMARK  116  A    between atoms: _261  and  _262
REMARK  117  A    between atoms: _261  and  _264
REMARK  118  A    between atoms: _264  and  _265
REMARK  119  A    between atoms: _271  and  _273
REMARK  120  A    between atoms: _273  and  _274
REMARK  121  A    between atoms: _273  and  _276
REMARK  122  A    between atoms: _276  and  _277
REMARK  123  A    between atoms: _281  and  _282
REMARK  124  A    between atoms: _287  and  _289
REMARK  125  A    between atoms: _289  and  _290
REMARK  126  A    between atoms: _289  and  _292
REMARK  127  A    between atoms: _295  and  _297
REMARK  128  A    between atoms: _297  and  _298
REMARK  129  A    between atoms: _297  and  _300
REMARK  130  A    between atoms: _300  and  _301
REMARK  131  A    between atoms: _303  and  _305
REMARK  132  A    between atoms: _305  and  _306
REMARK  133  A    between atoms: _309  and  _311
REMARK  134  A    between atoms: _311  and  _312
REMARK  135  A    between atoms: _311  and  _314
REMARK  136  A    between atoms: _317  and  _319
REMARK  137  A    between atoms: _319  and  _320
REMARK  138  A    between atoms: _319  and  _322
REMARK  139  A    between atoms: _322  and  _323
REMARK  140  A    between atoms: _325  and  _327
REMARK  141  A    between atoms: _327  and  _328
REMARK  142  A    between atoms: _327  and  _330
REMARK  143  A    between atoms: _330  and  _331
REMARK  144  A    between atoms: _333  and  _335
REMARK  145  A    between atoms: _335  and  _336
REMARK  146  A    between atoms: _335  and  _338
REMARK  147  A    between atoms: _338  and  _339
REMARK  148  A    between atoms: _344  and  _345
REMARK  149  A    between atoms: _348  and  _349
REMARK  150  A    between atoms: _354  and  _356
REMARK  151  A    between atoms: _356  and  _357
REMARK  152  A    between atoms: _356  and  _359
REMARK  153  A    between atoms: _362  and  _364
REMARK  154  A    between atoms: _364  and  _365
REMARK  155  A    between atoms: _364  and  _367
REMARK  156  A    between atoms: _367  and  _368
REMARK  157  A    between atoms: _370  and  _372
REMARK  158  A    between atoms: _372  and  _373
REMARK  159  A    between atoms: _372  and  _375
REMARK  160  A    between atoms: _375  and  _376
REMARK  161  A    between atoms: _382  and  _384
REMARK  162  A    between atoms: _384  and  _385
REMARK  163  A    between atoms: _384  and  _387
REMARK  164  A    between atoms: _387  and  _388
REMARK  165  A    between atoms: _391  and  _393
REMARK  166  A    between atoms: _393  and  _394
REMARK  167  A    between atoms: _393  and  _396
REMARK  168  A    between atoms: _396  and  _397
REMARK  169  A    between atoms: _397  and  _398
REMARK  170  A    between atoms: _398  and  _399
REMARK  171  A    between atoms: _399  and  _400
REMARK  172  A    between atoms: _404  and  _406
REMARK  173  A    between atoms: _406  and  _407
REMARK  174  A    between atoms: _406  and  _409
REMARK  175  A    between atoms: _409  and  _410
REMARK  176  A    between atoms: _415  and  _416
REMARK  177  A    between atoms: _418  and  _420
REMARK  178  A    between atoms: _420  and  _421
REMARK  179  A    between atoms: _420  and  _423
REMARK  180  A    between atoms: _425  and  _427
REMARK  181  A    between atoms: _427  and  _428
REMARK  182  A    between atoms: _427  and  _430
REMARK  183  A    between atoms: _430  and  _431
REMARK  184  A    between atoms: _434  and  _436
REMARK  185  A    between atoms: _436  and  _437
REMARK  186  A    between atoms: _436  and  _439
REMARK  187  A    between atoms: _439  and  _440
REMARK  188  A    between atoms: _446  and  _448
REMARK  189  A    between atoms: _448  and  _449
REMARK  190  A    between atoms: _448  and  _451
REMARK  191  A    between atoms: _454  and  _456
REMARK  192  A    between atoms: _456  and  _457
REMARK  193  A    between atoms: _456  and  _459
REMARK  194  A    between atoms: _459  and  _460
REMARK  195  A    between atoms: _463  and  _465
REMARK  196  A    between atoms: _465  and  _466
REMARK  197  A    between atoms: _465  and  _468
REMARK  198  A    between atoms: _468  and  _469
REMARK  199  A    between atoms: _471  and  _473
REMARK  200  A    between atoms: _473  and  _474
REMARK  201  A    between atoms: _473  and  _476
REMARK  202  A    between atoms: _476  and  _477
REMARK  203  A    between atoms: _480  and  _482
REMARK  204  A    between atoms: _482  and  _483
REMARK  205  A    between atoms: _486  and  _488
REMARK  206  A    between atoms: _488  and  _489
REMARK  207  A    between atoms: _488  and  _491
REMARK  208  A    between atoms: _491  and  _492
REMARK  209  A    between atoms: _495  and  _497
REMARK  210  A    between atoms: _497  and  _498
REMARK  211  A    between atoms: _497  and  _500
REMARK  212  A    between atoms: _500  and  _501
REMARK  213  A    between atoms: _501  and  _502
REMARK                            x       y       z     vdW  Elec       q    Type
REMARK                         _______ _______ _______ _____ _____    ______ ____
ROOT
ATOM      1  O   HOH     1     -16.259 -24.560  11.242  0.00  0.00    +0.000 OA
ENDROOT
TORSDOF 0
REMARK  Name = ../refined-set-2016/4ql1/4ql1_pocket.pdb
REMARK  213 active torsions:
REMARK  status: ('A' for Active; 'I' for Inactive)
REMARK    1  A    between atoms: _1  and  _3
REMARK    2  A    between atoms: _3  and  _4
REMARK    3  A    between atoms: _3  and  _6
REMARK    4  A    between atoms: _6  and  _7
REMARK    5  A    between atoms: _7  and  _8
REMARK    6  A    between atoms: _8  and  _9
REMARK    7  A    between atoms: _9  and  _10
REMARK    8  A    between atoms: _14  and  _16
REMARK    9  A    between atoms: _16  and  _17
REMARK   10  A    between atoms: _20  and  _22
REMARK   11  A    between atoms: _22  and  _23
REMARK   12  A    between atoms: _22  and  _25
REMARK   13  A    between atoms: _28  and  _30
REMARK   14  A    between atoms: _30  and  _31
REMARK   15  A    between atoms: _30  and  _33
REMARK   16  A    between atoms: _33  and  _34
REMARK   17  A    between atoms: _36  and  _38
REMARK   18  A    between atoms: _38  and  _39
REMARK   19  A    between atoms: _38  and  _41
REMARK   20  A    between atoms: _41  and  _42
REMARK   21  A    between atoms: _44  and  _46
REMARK   22  A    between atoms: _46  and  _47
REMARK   23  A    between atoms: _46  and  _49
REMARK   24  A    between atoms: _52  and  _54
REMARK   25  A    between atoms: _54  and  _55
REMARK   26  A    between atoms: _54  and  _57
REMARK   27  A    between atoms: _57  and  _58
REMARK   28  A    between atoms: _58  and  _59
REMARK   29  A    between atoms: _59  and  _60
REMARK   30  A    between atoms: _60  and  _61
REMARK   31  A    between atoms: _65  and  _67
REMARK   32  A    between atoms: _67  and  _68
REMARK   33  A    between atoms: _67  and  _70
REMARK   34  A    between atoms: _70  and  _71
REMARK   35  A    between atoms: _73  and  _75
REMARK   36  A    between atoms: _75  and  _76
REMARK   37  A    between atoms: _75  and  _78
REMARK   38  A    between atoms: _78  and  _79
REMARK   39  A    between atoms: _81  and  _83
REMARK   40  A    between atoms: _83  and  _84
REMARK   41  A    between atoms: _87  and  _89
REMARK   42  A    between atoms: _89  and  _90
REMARK   43  A    between atoms: _89  and  _92
REMARK   44  A    between atoms: _92  and  _93
REMARK   45  A    between atoms: _96  and  _98
REMARK   46  A    between atoms: _98  and  _99
REMARK   47  A    between atoms: _98  and  _101
REMARK   48  A    between atoms: _101  and  _102
REMARK   49  A    between atoms: _102  and  _103
REMARK   50  A    between atoms: _103  and  _104
REMARK   51  A    between atoms: _104  and  _105
REMARK   52  A    between atoms: _109  and  _111
REMARK   53  A    between atoms: _111  and  _112
REMARK   54  A    between atoms: _111  and  _114
REMARK   55  A    between atoms: _114  and  _115
REMARK   56  A    between atoms: _118  and  _120
REMARK   57  A    between atoms: _120  and  _121
REMARK   58  A    between atoms: _120  and  _123
REMARK   59  A    between atoms: _123  and  _124
REMARK   60  A    between atoms: _127  and  _129
REMARK   61  A    between atoms: _129  and  _130
REMARK   62  A    between atoms: _132  and  _134
REMARK   63  A    between atoms: _134  and  _135
REMARK   64  A    between atoms: _134  and  _137
REMARK   65  A    between atoms: _137  and  _138
REMARK   66  A    between atoms: _141  and  _143
REMARK   67  A    between atoms: _143  and  _144
REMARK   68  A    between atoms: _143  and  _146
REMARK   69  A    between atoms: _146  and  _147
REMARK   70  A    between atoms: _149  and  _151
REMARK   71  A    between atoms: _151  and  _152
REMARK   72  A    between atoms: _151  and  _154
REMARK   73  A    between atoms: _154  and  _155
REMARK   74  A    between atoms: _158  and  _160
REMARK   75  A    between atoms: _160  and  _161
REMARK   76  A    between atoms: _160  and  _163
REMARK   77  A    between atoms: _166  and  _168
REMARK   78  A    between atoms: _168  and  _169
REMARK   79  A    between atoms: _172  and  _174
REMARK   80  A    between atoms: _174  and  _175
REMARK   81  A    between atoms: _174  and  _177
REMARK   82  A    between atoms: _177  and  _178
REMARK   83  A    between atoms: _180  and  _182
REMARK   84  A    between atoms: _182  and  _183
REMARK   85  A    between atoms: _182  and  _185
REMARK   86  A    between atoms: _185  and  _186
REMARK   87  A    between atoms: _189  and  _191
REMARK   88  A    between atoms: _191  and  _192
REMARK   89  A    between atoms: _191  and  _194
REMARK   90  A    between atoms: _194  and  _195
REMARK   91  A    between atoms: _198  and  _200
REMARK   92  A    between atoms: _200  and  _201
REMARK   93  A    between atoms: _200  and  _203
REMARK   94  A    between atoms: _203  and  _204
REMARK   95  A    between atoms: _209  and  _210
REMARK   96  A    between atoms: _212  and  _214
REMARK   97  A    between atoms: _214  and  _215
REMARK   98  A    between atoms: _214  and  _217
REMARK   99  A    between atoms: _220  and  _222
REMARK  100  A    between atoms: _222  and  _223
REMARK  101  A    between atoms: _222  and  _225
REMARK  102  A    between atoms: _225  and  _226
REMARK  103  A    between atoms: _232  and  _234
REMARK  104  A    between atoms: _234  and  _235
REMARK  105  A    between atoms: _234  and  _237
REMARK  106  A    between atoms: _239  and  _241
REMARK  107  A    between atoms: _241  and  _242
REMARK  108  A    between atoms: _241  and  _244
REMARK  109  A    between atoms: _246  and  _248
REMARK  110  A    between atoms: _248  and  _249
REMARK  111  A    between atoms: _251  and  _253
REMARK  112  A    between atoms: _253  and  _254
REMARK  113  A    between atoms: _253  and  _256
REMARK  114  A    between atoms: _256  and  _257
REMARK  115  A    between atoms: _259  and  _261
REMARK  116  A    between atoms: _261  and  _262
REMARK  117  A    between atoms: _261  and  _264
REMARK  118  A    between atoms: _264  and  _265
REMARK  119  A    between atoms: _271  and  _273
REMARK  120  A    between atoms: _273  and  _274
REMARK  121  A    between atoms: _273  and  _276
REMARK  122  A    between atoms: _276  and  _277
REMARK  123  A    between atoms: _281  and  _282
REMARK  124  A    between atoms: _287  and  _289
REMARK  125  A    between atoms: _289  and  _290
REMARK  126  A    between atoms: _289  and  _292
REMARK  127  A    between atoms: _295  and  _297
REMARK  128  A    between atoms: _297  and  _298
REMARK  129  A    between atoms: _297  and  _300
REMARK  130  A    between atoms: _300  and  _301
REMARK  131  A    between atoms: _303  and  _305
REMARK  132  A    between atoms: _305  and  _306
REMARK  133  A    between atoms: _309  and  _311
REMARK  134  A    between atoms: _311  and  _312
REMARK  135  A    between atoms: _311  and  _314
REMARK  136  A    between atoms: _317  and  _319
REMARK  137  A    between atoms: _319  and  _320
REMARK  138  A    between atoms: _319  and  _322
REMARK  139  A    between atoms: _322  and  _323
REMARK  140  A    between atoms: _325  and  _327
REMARK  141  A    between atoms: _327  and  _328
REMARK  142  A    between atoms: _327  and  _330
REMARK  143  A    between atoms: _330  and  _331
REMARK  144  A    between atoms: _333  and  _335
REMARK  145  A    between atoms: _335  and  _336
REMARK  146  A    between atoms: _335  and  _338
REMARK  147  A    between atoms: _338  and  _339
REMARK  148  A    between atoms: _344  and  _345
REMARK  149  A    between atoms: _348  and  _349
REMARK  150  A    between atoms: _354  and  _356
REMARK  151  A    between atoms: _356  and  _357
REMARK  152  A    between atoms: _356  and  _359
REMARK  153  A    between atoms: _362  and  _364
REMARK  154  A    between atoms: _364  and  _365
REMARK  155  A    between atoms: _364  and  _367
REMARK  156  A    between atoms: _367  and  _368
REMARK  157  A    between atoms: _370  and  _372
REMARK  158  A    between atoms: _372  and  _373
REMARK  159  A    between atoms: _372  and  _375
REMARK  160  A    between atoms: _375  and  _376
REMARK  161  A    between atoms: _382  and  _384
REMARK  162  A    between atoms: _384  and  _385
REMARK  163  A    between atoms: _384  and  _387
REMARK  164  A    between atoms: _387  and  _388
REMARK  165  A    between atoms: _391  and  _393
REMARK  166  A    between atoms: _393  and  _394
REMARK  167  A    between atoms: _393  and  _396
REMARK  168  A    between atoms: _396  and  _397
REMARK  169  A    between atoms: _397  and  _398
REMARK  170  A    between atoms: _398  and  _399
REMARK  171  A    between atoms: _399  and  _400
REMARK  172  A    between atoms: _404  and  _406
REMARK  173  A    between atoms: _406  and  _407
REMARK  174  A    between atoms: _406  and  _409
REMARK  175  A    between atoms: _409  and  _410
REMARK  176  A    between atoms: _415  and  _416
REMARK  177  A    between atoms: _418  and  _420
REMARK  178  A    between atoms: _420  and  _421
REMARK  179  A    between atoms: _420  and  _423
REMARK  180  A    between atoms: _425  and  _427
REMARK  181  A    between atoms: _427  and  _428
REMARK  182  A    between atoms: _427  and  _430
REMARK  183  A    between atoms: _430  and  _431
REMARK  184  A    between atoms: _434  and  _436
REMARK  185  A    between atoms: _436  and  _437
REMARK  186  A    between atoms: _436  and  _439
REMARK  187  A    between atoms: _439  and  _440
REMARK  188  A    between atoms: _446  and  _448
REMARK  189  A    between atoms: _448  and  _449
REMARK  190  A    between atoms: _448  and  _451
REMARK  191  A    between atoms: _454  and  _456
REMARK  192  A    between atoms: _456  and  _457
REMARK  193  A    between atoms: _456  and  _459
REMARK  194  A    between atoms: _459  and  _460
REMARK  195  A    between atoms: _463  and  _465
REMARK  196  A    between atoms: _465  and  _466
REMARK  197  A    between atoms: _465  and  _468
REMARK  198  A    between atoms: _468  and  _469
REMARK  199  A    between atoms: _471  and  _473
REMARK  200  A    between atoms: _473  and  _474
REMARK  201  A    between atoms: _473  and  _476
REMARK  202  A    between atoms: _476  and  _477
REMARK  203  A    between atoms: _480  and  _482
REMARK  204  A    between atoms: _482  and  _483
REMARK  205  A    between atoms: _486  and  _488
REMARK  206  A    between atoms: _488  and  _489
REMARK  207  A    between atoms: _488  and  _491
REMARK  208  A    between atoms: _491  and  _492
REMARK  209  A    between atoms: _495  and  _497
REMARK  210  A    between atoms: _497  and  _498
REMARK  211  A    between atoms: _497  and  _500
REMARK  212  A    between atoms: _500  and  _501
REMARK  213  A    between atoms: _501  and  _502
REMARK                            x       y       z     vdW  Elec       q    Type
REMARK                         _______ _______ _______ _____ _____    ______ ____
ROOT
ATOM      1  O   HOH     1     -20.474 -31.111  -5.845  0.00  0.00    +0.000 OA
ENDROOT
TORSDOF 0
REMARK  Name = ../refined-set-2016/4ql1/4ql1_pocket.pdb
REMARK  213 active torsions:
REMARK  status: ('A' for Active; 'I' for Inactive)
REMARK    1  A    between atoms: _1  and  _3
REMARK    2  A    between atoms: _3  and  _4
REMARK    3  A    between atoms: _3  and  _6
REMARK    4  A    between atoms: _6  and  _7
REMARK    5  A    between atoms: _7  and  _8
REMARK    6  A    between atoms: _8  and  _9
REMARK    7  A    between atoms: _9  and  _10
REMARK    8  A    between atoms: _14  and  _16
REMARK    9  A    between atoms: _16  and  _17
REMARK   10  A    between atoms: _20  and  _22
REMARK   11  A    between atoms: _22  and  _23
REMARK   12  A    between atoms: _22  and  _25
REMARK   13  A    between atoms: _28  and  _30
REMARK   14  A    between atoms: _30  and  _31
REMARK   15  A    between atoms: _30  and  _33
REMARK   16  A    between atoms: _33  and  _34
REMARK   17  A    between atoms: _36  and  _38
REMARK   18  A    between atoms: _38  and  _39
REMARK   19  A    between atoms: _38  and  _41
REMARK   20  A    between atoms: _41  and  _42
REMARK   21  A    between atoms: _44  and  _46
REMARK   22  A    between atoms: _46  and  _47
REMARK   23  A    between atoms: _46  and  _49
REMARK   24  A    between atoms: _52  and  _54
REMARK   25  A    between atoms: _54  and  _55
REMARK   26  A    between atoms: _54  and  _57
REMARK   27  A    between atoms: _57  and  _58
REMARK   28  A    between atoms: _58  and  _59
REMARK   29  A    between atoms: _59  and  _60
REMARK   30  A    between atoms: _60  and  _61
REMARK   31  A    between atoms: _65  and  _67
REMARK   32  A    between atoms: _67  and  _68
REMARK   33  A    between atoms: _67  and  _70
REMARK   34  A    between atoms: _70  and  _71
REMARK   35  A    between atoms: _73  and  _75
REMARK   36  A    between atoms: _75  and  _76
REMARK   37  A    between atoms: _75  and  _78
REMARK   38  A    between atoms: _78  and  _79
REMARK   39  A    between atoms: _81  and  _83
REMARK   40  A    between atoms: _83  and  _84
REMARK   41  A    between atoms: _87  and  _89
REMARK   42  A    between atoms: _89  and  _90
REMARK   43  A    between atoms: _89  and  _92
REMARK   44  A    between atoms: _92  and  _93
REMARK   45  A    between atoms: _96  and  _98
REMARK   46  A    between atoms: _98  and  _99
REMARK   47  A    between atoms: _98  and  _101
REMARK   48  A    between atoms: _101  and  _102
REMARK   49  A    between atoms: _102  and  _103
REMARK   50  A    between atoms: _103  and  _104
REMARK   51  A    between atoms: _104  and  _105
REMARK   52  A    between atoms: _109  and  _111
REMARK   53  A    between atoms: _111  and  _112
REMARK   54  A    between atoms: _111  and  _114
REMARK   55  A    between atoms: _114  and  _115
REMARK   56  A    between atoms: _118  and  _120
REMARK   57  A    between atoms: _120  and  _121
REMARK   58  A    between atoms: _120  and  _123
REMARK   59  A    between atoms: _123  and  _124
REMARK   60  A    between atoms: _127  and  _129
REMARK   61  A    between atoms: _129  and  _130
REMARK   62  A    between atoms: _132  and  _134
REMARK   63  A    between atoms: _134  and  _135
REMARK   64  A    between atoms: _134  and  _137
REMARK   65  A    between atoms: _137  and  _138
REMARK   66  A    between atoms: _141  and  _143
REMARK   67  A    between atoms: _143  and  _144
REMARK   68  A    between atoms: _143  and  _146
REMARK   69  A    between atoms: _146  and  _147
REMARK   70  A    between atoms: _149  and  _151
REMARK   71  A    between atoms: _151  and  _152
REMARK   72  A    between atoms: _151  and  _154
REMARK   73  A    between atoms: _154  and  _155
REMARK   74  A    between atoms: _158  and  _160
REMARK   75  A    between atoms: _160  and  _161
REMARK   76  A    between atoms: _160  and  _163
REMARK   77  A    between atoms: _166  and  _168
REMARK   78  A    between atoms: _168  and  _169
REMARK   79  A    between atoms: _172  and  _174
REMARK   80  A    between atoms: _174  and  _175
REMARK   81  A    between atoms: _174  and  _177
REMARK   82  A    between atoms: _177  and  _178
REMARK   83  A    between atoms: _180  and  _182
REMARK   84  A    between atoms: _182  and  _183
REMARK   85  A    between atoms: _182  and  _185
REMARK   86  A    between atoms: _185  and  _186
REMARK   87  A    between atoms: _189  and  _191
REMARK   88  A    between atoms: _191  and  _192
REMARK   89  A    between atoms: _191  and  _194
REMARK   90  A    between atoms: _194  and  _195
REMARK   91  A    between atoms: _198  and  _200
REMARK   92  A    between atoms: _200  and  _201
REMARK   93  A    between atoms: _200  and  _203
REMARK   94  A    between atoms: _203  and  _204
REMARK   95  A    between atoms: _209  and  _210
REMARK   96  A    between atoms: _212  and  _214
REMARK   97  A    between atoms: _214  and  _215
REMARK   98  A    between atoms: _214  and  _217
REMARK   99  A    between atoms: _220  and  _222
REMARK  100  A    between atoms: _222  and  _223
REMARK  101  A    between atoms: _222  and  _225
REMARK  102  A    between atoms: _225  and  _226
REMARK  103  A    between atoms: _232  and  _234
REMARK  104  A    between atoms: _234  and  _235
REMARK  105  A    between atoms: _234  and  _237
REMARK  106  A    between atoms: _239  and  _241
REMARK  107  A    between atoms: _241  and  _242
REMARK  108  A    between atoms: _241  and  _244
REMARK  109  A    between atoms: _246  and  _248
REMARK  110  A    between atoms: _248  and  _249
REMARK  111  A    between atoms: _251  and  _253
REMARK  112  A    between atoms: _253  and  _254
REMARK  113  A    between atoms: _253  and  _256
REMARK  114  A    between atoms: _256  and  _257
REMARK  115  A    between atoms: _259  and  _261
REMARK  116  A    between atoms: _261  and  _262
REMARK  117  A    between atoms: _261  and  _264
REMARK  118  A    between atoms: _264  and  _265
REMARK  119  A    between atoms: _271  and  _273
REMARK  120  A    between atoms: _273  and  _274
REMARK  121  A    between atoms: _273  and  _276
REMARK  122  A    between atoms: _276  and  _277
REMARK  123  A    between atoms: _281  and  _282
REMARK  124  A    between atoms: _287  and  _289
REMARK  125  A    between atoms: _289  and  _290
REMARK  126  A    between atoms: _289  and  _292
REMARK  127  A    between atoms: _295  and  _297
REMARK  128  A    between atoms: _297  and  _298
REMARK  129  A    between atoms: _297  and  _300
REMARK  130  A    between atoms: _300  and  _301
REMARK  131  A    between atoms: _303  and  _305
REMARK  132  A    between atoms: _305  and  _306
REMARK  133  A    between atoms: _309  and  _311
REMARK  134  A    between atoms: _311  and  _312
REMARK  135  A    between atoms: _311  and  _314
REMARK  136  A    between atoms: _317  and  _319
REMARK  137  A    between atoms: _319  and  _320
REMARK  138  A    between atoms: _319  and  _322
REMARK  139  A    between atoms: _322  and  _323
REMARK  140  A    between atoms: _325  and  _327
REMARK  141  A    between atoms: _327  and  _328
REMARK  142  A    between atoms: _327  and  _330
REMARK  143  A    between atoms: _330  and  _331
REMARK  144  A    between atoms: _333  and  _335
REMARK  145  A    between atoms: _335  and  _336
REMARK  146  A    between atoms: _335  and  _338
REMARK  147  A    between atoms: _338  and  _339
REMARK  148  A    between atoms: _344  and  _345
REMARK  149  A    between atoms: _348  and  _349
REMARK  150  A    between atoms: _354  and  _356
REMARK  151  A    between atoms: _356  and  _357
REMARK  152  A    between atoms: _356  and  _359
REMARK  153  A    between atoms: _362  and  _364
REMARK  154  A    between atoms: _364  and  _365
REMARK  155  A    between atoms: _364  and  _367
REMARK  156  A    between atoms: _367  and  _368
REMARK  157  A    between atoms: _370  and  _372
REMARK  158  A    between atoms: _372  and  _373
REMARK  159  A    between atoms: _372  and  _375
REMARK  160  A    between atoms: _375  and  _376
REMARK  161  A    between atoms: _382  and  _384
REMARK  162  A    between atoms: _384  and  _385
REMARK  163  A    between atoms: _384  and  _387
REMARK  164  A    between atoms: _387  and  _388
REMARK  165  A    between atoms: _391  and  _393
REMARK  166  A    between atoms: _393  and  _394
REMARK  167  A    between atoms: _393  and  _396
REMARK  168  A    between atoms: _396  and  _397
REMARK  169  A    between atoms: _397  and  _398
REMARK  170  A    between atoms: _398  and  _399
REMARK  171  A    between atoms: _399  and  _400
REMARK  172  A    between atoms: _404  and  _406
REMARK  173  A    between atoms: _406  and  _407
REMARK  174  A    between atoms: _406  and  _409
REMARK  175  A    between atoms: _409  and  _410
REMARK  176  A    between atoms: _415  and  _416
REMARK  177  A    between atoms: _418  and  _420
REMARK  178  A    between atoms: _420  and  _421
REMARK  179  A    between atoms: _420  and  _423
REMARK  180  A    between atoms: _425  and  _427
REMARK  181  A    between atoms: _427  and  _428
REMARK  182  A    between atoms: _427  and  _430
REMARK  183  A    between atoms: _430  and  _431
REMARK  184  A    between atoms: _434  and  _436
REMARK  185  A    between atoms: _436  and  _437
REMARK  186  A    between atoms: _436  and  _439
REMARK  187  A    between atoms: _439  and  _440
REMARK  188  A    between atoms: _446  and  _448
REMARK  189  A    between atoms: _448  and  _449
REMARK  190  A    between atoms: _448  and  _451
REMARK  191  A    between atoms: _454  and  _456
REMARK  192  A    between atoms: _456  and  _457
REMARK  193  A    between atoms: _456  and  _459
REMARK  194  A    between atoms: _459  and  _460
REMARK  195  A    between atoms: _463  and  _465
REMARK  196  A    between atoms: _465  and  _466
REMARK  197  A    between atoms: _465  and  _468
REMARK  198  A    between atoms: _468  and  _469
REMARK  199  A    between atoms: _471  and  _473
REMARK  200  A    between atoms: _473  and  _474
REMARK  201  A    between atoms: _473  and  _476
REMARK  202  A    between atoms: _476  and  _477
REMARK  203  A    between atoms: _480  and  _482
REMARK  204  A    between atoms: _482  and  _483
REMARK  205  A    between atoms: _486  and  _488
REMARK  206  A    between atoms: _488  and  _489
REMARK  207  A    between atoms: _488  and  _491
REMARK  208  A    between atoms: _491  and  _492
REMARK  209  A    between atoms: _495  and  _497
REMARK  210  A    between atoms: _497  and  _498
REMARK  211  A    between atoms: _497  and  _500
REMARK  212  A    between atoms: _500  and  _501
REMARK  213  A    between atoms: _501  and  _502
REMARK                            x       y       z     vdW  Elec       q    Type
REMARK                         _______ _______ _______ _____ _____    ______ ____
ROOT
ATOM      1  O   HOH     1     -17.767 -23.614   8.988  0.00  0.00    +0.000 OA
ENDROOT
TORSDOF 0
REMARK  Name = ../refined-set-2016/4ql1/4ql1_pocket.pdb
REMARK  213 active torsions:
REMARK  status: ('A' for Active; 'I' for Inactive)
REMARK    1  A    between atoms: _1  and  _3
REMARK    2  A    between atoms: _3  and  _4
REMARK    3  A    between atoms: _3  and  _6
REMARK    4  A    between atoms: _6  and  _7
REMARK    5  A    between atoms: _7  and  _8
REMARK    6  A    between atoms: _8  and  _9
REMARK    7  A    between atoms: _9  and  _10
REMARK    8  A    between atoms: _14  and  _16
REMARK    9  A    between atoms: _16  and  _17
REMARK   10  A    between atoms: _20  and  _22
REMARK   11  A    between atoms: _22  and  _23
REMARK   12  A    between atoms: _22  and  _25
REMARK   13  A    between atoms: _28  and  _30
REMARK   14  A    between atoms: _30  and  _31
REMARK   15  A    between atoms: _30  and  _33
REMARK   16  A    between atoms: _33  and  _34
REMARK   17  A    between atoms: _36  and  _38
REMARK   18  A    between atoms: _38  and  _39
REMARK   19  A    between atoms: _38  and  _41
REMARK   20  A    between atoms: _41  and  _42
REMARK   21  A    between atoms: _44  and  _46
REMARK   22  A    between atoms: _46  and  _47
REMARK   23  A    between atoms: _46  and  _49
REMARK   24  A    between atoms: _52  and  _54
REMARK   25  A    between atoms: _54  and  _55
REMARK   26  A    between atoms: _54  and  _57
REMARK   27  A    between atoms: _57  and  _58
REMARK   28  A    between atoms: _58  and  _59
REMARK   29  A    between atoms: _59  and  _60
REMARK   30  A    between atoms: _60  and  _61
REMARK   31  A    between atoms: _65  and  _67
REMARK   32  A    between atoms: _67  and  _68
REMARK   33  A    between atoms: _67  and  _70
REMARK   34  A    between atoms: _70  and  _71
REMARK   35  A    between atoms: _73  and  _75
REMARK   36  A    between atoms: _75  and  _76
REMARK   37  A    between atoms: _75  and  _78
REMARK   38  A    between atoms: _78  and  _79
REMARK   39  A    between atoms: _81  and  _83
REMARK   40  A    between atoms: _83  and  _84
REMARK   41  A    between atoms: _87  and  _89
REMARK   42  A    between atoms: _89  and  _90
REMARK   43  A    between atoms: _89  and  _92
REMARK   44  A    between atoms: _92  and  _93
REMARK   45  A    between atoms: _96  and  _98
REMARK   46  A    between atoms: _98  and  _99
REMARK   47  A    between atoms: _98  and  _101
REMARK   48  A    between atoms: _101  and  _102
REMARK   49  A    between atoms: _102  and  _103
REMARK   50  A    between atoms: _103  and  _104
REMARK   51  A    between atoms: _104  and  _105
REMARK   52  A    between atoms: _109  and  _111
REMARK   53  A    between atoms: _111  and  _112
REMARK   54  A    between atoms: _111  and  _114
REMARK   55  A    between atoms: _114  and  _115
REMARK   56  A    between atoms: _118  and  _120
REMARK   57  A    between atoms: _120  and  _121
REMARK   58  A    between atoms: _120  and  _123
REMARK   59  A    between atoms: _123  and  _124
REMARK   60  A    between atoms: _127  and  _129
REMARK   61  A    between atoms: _129  and  _130
REMARK   62  A    between atoms: _132  and  _134
REMARK   63  A    between atoms: _134  and  _135
REMARK   64  A    between atoms: _134  and  _137
REMARK   65  A    between atoms: _137  and  _138
REMARK   66  A    between atoms: _141  and  _143
REMARK   67  A    between atoms: _143  and  _144
REMARK   68  A    between atoms: _143  and  _146
REMARK   69  A    between atoms: _146  and  _147
REMARK   70  A    between atoms: _149  and  _151
REMARK   71  A    between atoms: _151  and  _152
REMARK   72  A    between atoms: _151  and  _154
REMARK   73  A    between atoms: _154  and  _155
REMARK   74  A    between atoms: _158  and  _160
REMARK   75  A    between atoms: _160  and  _161
REMARK   76  A    between atoms: _160  and  _163
REMARK   77  A    between atoms: _166  and  _168
REMARK   78  A    between atoms: _168  and  _169
REMARK   79  A    between atoms: _172  and  _174
REMARK   80  A    between atoms: _174  and  _175
REMARK   81  A    between atoms: _174  and  _177
REMARK   82  A    between atoms: _177  and  _178
REMARK   83  A    between atoms: _180  and  _182
REMARK   84  A    between atoms: _182  and  _183
REMARK   85  A    between atoms: _182  and  _185
REMARK   86  A    between atoms: _185  and  _186
REMARK   87  A    between atoms: _189  and  _191
REMARK   88  A    between atoms: _191  and  _192
REMARK   89  A    between atoms: _191  and  _194
REMARK   90  A    between atoms: _194  and  _195
REMARK   91  A    between atoms: _198  and  _200
REMARK   92  A    between atoms: _200  and  _201
REMARK   93  A    between atoms: _200  and  _203
REMARK   94  A    between atoms: _203  and  _204
REMARK   95  A    between atoms: _209  and  _210
REMARK   96  A    between atoms: _212  and  _214
REMARK   97  A    between atoms: _214  and  _215
REMARK   98  A    between atoms: _214  and  _217
REMARK   99  A    between atoms: _220  and  _222
REMARK  100  A    between atoms: _222  and  _223
REMARK  101  A    between atoms: _222  and  _225
REMARK  102  A    between atoms: _225  and  _226
REMARK  103  A    between atoms: _232  and  _234
REMARK  104  A    between atoms: _234  and  _235
REMARK  105  A    between atoms: _234  and  _237
REMARK  106  A    between atoms: _239  and  _241
REMARK  107  A    between atoms: _241  and  _242
REMARK  108  A    between atoms: _241  and  _244
REMARK  109  A    between atoms: _246  and  _248
REMARK  110  A    between atoms: _248  and  _249
REMARK  111  A    between atoms: _251  and  _253
REMARK  112  A    between atoms: _253  and  _254
REMARK  113  A    between atoms: _253  and  _256
REMARK  114  A    between atoms: _256  and  _257
REMARK  115  A    between atoms: _259  and  _261
REMARK  116  A    between atoms: _261  and  _262
REMARK  117  A    between atoms: _261  and  _264
REMARK  118  A    between atoms: _264  and  _265
REMARK  119  A    between atoms: _271  and  _273
REMARK  120  A    between atoms: _273  and  _274
REMARK  121  A    between atoms: _273  and  _276
REMARK  122  A    between atoms: _276  and  _277
REMARK  123  A    between atoms: _281  and  _282
REMARK  124  A    between atoms: _287  and  _289
REMARK  125  A    between atoms: _289  and  _290
REMARK  126  A    between atoms: _289  and  _292
REMARK  127  A    between atoms: _295  and  _297
REMARK  128  A    between atoms: _297  and  _298
REMARK  129  A    between atoms: _297  and  _300
REMARK  130  A    between atoms: _300  and  _301
REMARK  131  A    between atoms: _303  and  _305
REMARK  132  A    between atoms: _305  and  _306
REMARK  133  A    between atoms: _309  and  _311
REMARK  134  A    between atoms: _311  and  _312
REMARK  135  A    between atoms: _311  and  _314
REMARK  136  A    between atoms: _317  and  _319
REMARK  137  A    between atoms: _319  and  _320
REMARK  138  A    between atoms: _319  and  _322
REMARK  139  A    between atoms: _322  and  _323
REMARK  140  A    between atoms: _325  and  _327
REMARK  141  A    between atoms: _327  and  _328
REMARK  142  A    between atoms: _327  and  _330
REMARK  143  A    between atoms: _330  and  _331
REMARK  144  A    between atoms: _333  and  _335
REMARK  145  A    between atoms: _335  and  _336
REMARK  146  A    between atoms: _335  and  _338
REMARK  147  A    between atoms: _338  and  _339
REMARK  148  A    between atoms: _344  and  _345
REMARK  149  A    between atoms: _348  and  _349
REMARK  150  A    between atoms: _354  and  _356
REMARK  151  A    between atoms: _356  and  _357
REMARK  152  A    between atoms: _356  and  _359
REMARK  153  A    between atoms: _362  and  _364
REMARK  154  A    between atoms: _364  and  _365
REMARK  155  A    between atoms: _364  and  _367
REMARK  156  A    between atoms: _367  and  _368
REMARK  157  A    between atoms: _370  and  _372
REMARK  158  A    between atoms: _372  and  _373
REMARK  159  A    between atoms: _372  and  _375
REMARK  160  A    between atoms: _375  and  _376
REMARK  161  A    between atoms: _382  and  _384
REMARK  162  A    between atoms: _384  and  _385
REMARK  163  A    between atoms: _384  and  _387
REMARK  164  A    between atoms: _387  and  _388
REMARK  165  A    between atoms: _391  and  _393
REMARK  166  A    between atoms: _393  and  _394
REMARK  167  A    between atoms: _393  and  _396
REMARK  168  A    between atoms: _396  and  _397
REMARK  169  A    between atoms: _397  and  _398
REMARK  170  A    between atoms: _398  and  _399
REMARK  171  A    between atoms: _399  and  _400
REMARK  172  A    between atoms: _404  and  _406
REMARK  173  A    between atoms: _406  and  _407
REMARK  174  A    between atoms: _406  and  _409
REMARK  175  A    between atoms: _409  and  _410
REMARK  176  A    between atoms: _415  and  _416
REMARK  177  A    between atoms: _418  and  _420
REMARK  178  A    between atoms: _420  and  _421
REMARK  179  A    between atoms: _420  and  _423
REMARK  180  A    between atoms: _425  and  _427
REMARK  181  A    between atoms: _427  and  _428
REMARK  182  A    between atoms: _427  and  _430
REMARK  183  A    between atoms: _430  and  _431
REMARK  184  A    between atoms: _434  and  _436
REMARK  185  A    between atoms: _436  and  _437
REMARK  186  A    between atoms: _436  and  _439
REMARK  187  A    between atoms: _439  and  _440
REMARK  188  A    between atoms: _446  and  _448
REMARK  189  A    between atoms: _448  and  _449
REMARK  190  A    between atoms: _448  and  _451
REMARK  191  A    between atoms: _454  and  _456
REMARK  192  A    between atoms: _456  and  _457
REMARK  193  A    between atoms: _456  and  _459
REMARK  194  A    between atoms: _459  and  _460
REMARK  195  A    between atoms: _463  and  _465
REMARK  196  A    between atoms: _465  and  _466
REMARK  197  A    between atoms: _465  and  _468
REMARK  198  A    between atoms: _468  and  _469
REMARK  199  A    between atoms: _471  and  _473
REMARK  200  A    between atoms: _473  and  _474
REMARK  201  A    between atoms: _473  and  _476
REMARK  202  A    between atoms: _476  and  _477
REMARK  203  A    between atoms: _480  and  _482
REMARK  204  A    between atoms: _482  and  _483
REMARK  205  A    between atoms: _486  and  _488
REMARK  206  A    between atoms: _488  and  _489
REMARK  207  A    between atoms: _488  and  _491
REMARK  208  A    between atoms: _491  and  _492
REMARK  209  A    between atoms: _495  and  _497
REMARK  210  A    between atoms: _497  and  _498
REMARK  211  A    between atoms: _497  and  _500
REMARK  212  A    between atoms: _500  and  _501
REMARK  213  A    between atoms: _501  and  _502
REMARK                            x       y       z     vdW  Elec       q    Type
REMARK                         _______ _______ _______ _____ _____    ______ ____
ROOT
ATOM      1  O   HOH     1     -11.874 -23.161  -2.423  0.00  0.00    +0.000 OA
ENDROOT
TORSDOF 0
REMARK  Name = ../refined-set-2016/4ql1/4ql1_pocket.pdb
REMARK  213 active torsions:
REMARK  status: ('A' for Active; 'I' for Inactive)
REMARK    1  A    between atoms: _1  and  _3
REMARK    2  A    between atoms: _3  and  _4
REMARK    3  A    between atoms: _3  and  _6
REMARK    4  A    between atoms: _6  and  _7
REMARK    5  A    between atoms: _7  and  _8
REMARK    6  A    between atoms: _8  and  _9
REMARK    7  A    between atoms: _9  and  _10
REMARK    8  A    between atoms: _14  and  _16
REMARK    9  A    between atoms: _16  and  _17
REMARK   10  A    between atoms: _20  and  _22
REMARK   11  A    between atoms: _22  and  _23
REMARK   12  A    between atoms: _22  and  _25
REMARK   13  A    between atoms: _28  and  _30
REMARK   14  A    between atoms: _30  and  _31
REMARK   15  A    between atoms: _30  and  _33
REMARK   16  A    between atoms: _33  and  _34
REMARK   17  A    between atoms: _36  and  _38
REMARK   18  A    between atoms: _38  and  _39
REMARK   19  A    between atoms: _38  and  _41
REMARK   20  A    between atoms: _41  and  _42
REMARK   21  A    between atoms: _44  and  _46
REMARK   22  A    between atoms: _46  and  _47
REMARK   23  A    between atoms: _46  and  _49
REMARK   24  A    between atoms: _52  and  _54
REMARK   25  A    between atoms: _54  and  _55
REMARK   26  A    between atoms: _54  and  _57
REMARK   27  A    between atoms: _57  and  _58
REMARK   28  A    between atoms: _58  and  _59
REMARK   29  A    between atoms: _59  and  _60
REMARK   30  A    between atoms: _60  and  _61
REMARK   31  A    between atoms: _65  and  _67
REMARK   32  A    between atoms: _67  and  _68
REMARK   33  A    between atoms: _67  and  _70
REMARK   34  A    between atoms: _70  and  _71
REMARK   35  A    between atoms: _73  and  _75
REMARK   36  A    between atoms: _75  and  _76
REMARK   37  A    between atoms: _75  and  _78
REMARK   38  A    between atoms: _78  and  _79
REMARK   39  A    between atoms: _81  and  _83
REMARK   40  A    between atoms: _83  and  _84
REMARK   41  A    between atoms: _87  and  _89
REMARK   42  A    between atoms: _89  and  _90
REMARK   43  A    between atoms: _89  and  _92
REMARK   44  A    between atoms: _92  and  _93
REMARK   45  A    between atoms: _96  and  _98
REMARK   46  A    between atoms: _98  and  _99
REMARK   47  A    between atoms: _98  and  _101
REMARK   48  A    between atoms: _101  and  _102
REMARK   49  A    between atoms: _102  and  _103
REMARK   50  A    between atoms: _103  and  _104
REMARK   51  A    between atoms: _104  and  _105
REMARK   52  A    between atoms: _109  and  _111
REMARK   53  A    between atoms: _111  and  _112
REMARK   54  A    between atoms: _111  and  _114
REMARK   55  A    between atoms: _114  and  _115
REMARK   56  A    between atoms: _118  and  _120
REMARK   57  A    between atoms: _120  and  _121
REMARK   58  A    between atoms: _120  and  _123
REMARK   59  A    between atoms: _123  and  _124
REMARK   60  A    between atoms: _127  and  _129
REMARK   61  A    between atoms: _129  and  _130
REMARK   62  A    between atoms: _132  and  _134
REMARK   63  A    between atoms: _134  and  _135
REMARK   64  A    between atoms: _134  and  _137
REMARK   65  A    between atoms: _137  and  _138
REMARK   66  A    between atoms: _141  and  _143
REMARK   67  A    between atoms: _143  and  _144
REMARK   68  A    between atoms: _143  and  _146
REMARK   69  A    between atoms: _146  and  _147
REMARK   70  A    between atoms: _149  and  _151
REMARK   71  A    between atoms: _151  and  _152
REMARK   72  A    between atoms: _151  and  _154
REMARK   73  A    between atoms: _154  and  _155
REMARK   74  A    between atoms: _158  and  _160
REMARK   75  A    between atoms: _160  and  _161
REMARK   76  A    between atoms: _160  and  _163
REMARK   77  A    between atoms: _166  and  _168
REMARK   78  A    between atoms: _168  and  _169
REMARK   79  A    between atoms: _172  and  _174
REMARK   80  A    between atoms: _174  and  _175
REMARK   81  A    between atoms: _174  and  _177
REMARK   82  A    between atoms: _177  and  _178
REMARK   83  A    between atoms: _180  and  _182
REMARK   84  A    between atoms: _182  and  _183
REMARK   85  A    between atoms: _182  and  _185
REMARK   86  A    between atoms: _185  and  _186
REMARK   87  A    between atoms: _189  and  _191
REMARK   88  A    between atoms: _191  and  _192
REMARK   89  A    between atoms: _191  and  _194
REMARK   90  A    between atoms: _194  and  _195
REMARK   91  A    between atoms: _198  and  _200
REMARK   92  A    between atoms: _200  and  _201
REMARK   93  A    between atoms: _200  and  _203
REMARK   94  A    between atoms: _203  and  _204
REMARK   95  A    between atoms: _209  and  _210
REMARK   96  A    between atoms: _212  and  _214
REMARK   97  A    between atoms: _214  and  _215
REMARK   98  A    between atoms: _214  and  _217
REMARK   99  A    between atoms: _220  and  _222
REMARK  100  A    between atoms: _222  and  _223
REMARK  101  A    between atoms: _222  and  _225
REMARK  102  A    between atoms: _225  and  _226
REMARK  103  A    between atoms: _232  and  _234
REMARK  104  A    between atoms: _234  and  _235
REMARK  105  A    between atoms: _234  and  _237
REMARK  106  A    between atoms: _239  and  _241
REMARK  107  A    between atoms: _241  and  _242
REMARK  108  A    between atoms: _241  and  _244
REMARK  109  A    between atoms: _246  and  _248
REMARK  110  A    between atoms: _248  and  _249
REMARK  111  A    between atoms: _251  and  _253
REMARK  112  A    between atoms: _253  and  _254
REMARK  113  A    between atoms: _253  and  _256
REMARK  114  A    between atoms: _256  and  _257
REMARK  115  A    between atoms: _259  and  _261
REMARK  116  A    between atoms: _261  and  _262
REMARK  117  A    between atoms: _261  and  _264
REMARK  118  A    between atoms: _264  and  _265
REMARK  119  A    between atoms: _271  and  _273
REMARK  120  A    between atoms: _273  and  _274
REMARK  121  A    between atoms: _273  and  _276
REMARK  122  A    between atoms: _276  and  _277
REMARK  123  A    between atoms: _281  and  _282
REMARK  124  A    between atoms: _287  and  _289
REMARK  125  A    between atoms: _289  and  _290
REMARK  126  A    between atoms: _289  and  _292
REMARK  127  A    between atoms: _295  and  _297
REMARK  128  A    between atoms: _297  and  _298
REMARK  129  A    between atoms: _297  and  _300
REMARK  130  A    between atoms: _300  and  _301
REMARK  131  A    between atoms: _303  and  _305
REMARK  132  A    between atoms: _305  and  _306
REMARK  133  A    between atoms: _309  and  _311
REMARK  134  A    between atoms: _311  and  _312
REMARK  135  A    between atoms: _311  and  _314
REMARK  136  A    between atoms: _317  and  _319
REMARK  137  A    between atoms: _319  and  _320
REMARK  138  A    between atoms: _319  and  _322
REMARK  139  A    between atoms: _322  and  _323
REMARK  140  A    between atoms: _325  and  _327
REMARK  141  A    between atoms: _327  and  _328
REMARK  142  A    between atoms: _327  and  _330
REMARK  143  A    between atoms: _330  and  _331
REMARK  144  A    between atoms: _333  and  _335
REMARK  145  A    between atoms: _335  and  _336
REMARK  146  A    between atoms: _335  and  _338
REMARK  147  A    between atoms: _338  and  _339
REMARK  148  A    between atoms: _344  and  _345
REMARK  149  A    between atoms: _348  and  _349
REMARK  150  A    between atoms: _354  and  _356
REMARK  151  A    between atoms: _356  and  _357
REMARK  152  A    between atoms: _356  and  _359
REMARK  153  A    between atoms: _362  and  _364
REMARK  154  A    between atoms: _364  and  _365
REMARK  155  A    between atoms: _364  and  _367
REMARK  156  A    between atoms: _367  and  _368
REMARK  157  A    between atoms: _370  and  _372
REMARK  158  A    between atoms: _372  and  _373
REMARK  159  A    between atoms: _372  and  _375
REMARK  160  A    between atoms: _375  and  _376
REMARK  161  A    between atoms: _382  and  _384
REMARK  162  A    between atoms: _384  and  _385
REMARK  163  A    between atoms: _384  and  _387
REMARK  164  A    between atoms: _387  and  _388
REMARK  165  A    between atoms: _391  and  _393
REMARK  166  A    between atoms: _393  and  _394
REMARK  167  A    between atoms: _393  and  _396
REMARK  168  A    between atoms: _396  and  _397
REMARK  169  A    between atoms: _397  and  _398
REMARK  170  A    between atoms: _398  and  _399
REMARK  171  A    between atoms: _399  and  _400
REMARK  172  A    between atoms: _404  and  _406
REMARK  173  A    between atoms: _406  and  _407
REMARK  174  A    between atoms: _406  and  _409
REMARK  175  A    between atoms: _409  and  _410
REMARK  176  A    between atoms: _415  and  _416
REMARK  177  A    between atoms: _418  and  _420
REMARK  178  A    between atoms: _420  and  _421
REMARK  179  A    between atoms: _420  and  _423
REMARK  180  A    between atoms: _425  and  _427
REMARK  181  A    between atoms: _427  and  _428
REMARK  182  A    between atoms: _427  and  _430
REMARK  183  A    between atoms: _430  and  _431
REMARK  184  A    between atoms: _434  and  _436
REMARK  185  A    between atoms: _436  and  _437
REMARK  186  A    between atoms: _436  and  _439
REMARK  187  A    between atoms: _439  and  _440
REMARK  188  A    between atoms: _446  and  _448
REMARK  189  A    between atoms: _448  and  _449
REMARK  190  A    between atoms: _448  and  _451
REMARK  191  A    between atoms: _454  and  _456
REMARK  192  A    between atoms: _456  and  _457
REMARK  193  A    between atoms: _456  and  _459
REMARK  194  A    between atoms: _459  and  _460
REMARK  195  A    between atoms: _463  and  _465
REMARK  196  A    between atoms: _465  and  _466
REMARK  197  A    between atoms: _465  and  _468
REMARK  198  A    between atoms: _468  and  _469
REMARK  199  A    between atoms: _471  and  _473
REMARK  200  A    between atoms: _473  and  _474
REMARK  201  A    between atoms: _473  and  _476
REMARK  202  A    between atoms: _476  and  _477
REMARK  203  A    between atoms: _480  and  _482
REMARK  204  A    between atoms: _482  and  _483
REMARK  205  A    between atoms: _486  and  _488
REMARK  206  A    between atoms: _488  and  _489
REMARK  207  A    between atoms: _488  and  _491
REMARK  208  A    between atoms: _491  and  _492
REMARK  209  A    between atoms: _495  and  _497
REMARK  210  A    between atoms: _497  and  _498
REMARK  211  A    between atoms: _497  and  _500
REMARK  212  A    between atoms: _500  and  _501
REMARK  213  A    between atoms: _501  and  _502
REMARK                            x       y       z     vdW  Elec       q    Type
REMARK                         _______ _______ _______ _____ _____    ______ ____
ROOT
ATOM      1  O   HOH     1     -11.249 -20.147  12.822  0.00  0.00    +0.000 OA
ENDROOT
TORSDOF 0
REMARK  Name = ../refined-set-2016/4ql1/4ql1_pocket.pdb
REMARK  213 active torsions:
REMARK  status: ('A' for Active; 'I' for Inactive)
REMARK    1  A    between atoms: _1  and  _3
REMARK    2  A    between atoms: _3  and  _4
REMARK    3  A    between atoms: _3  and  _6
REMARK    4  A    between atoms: _6  and  _7
REMARK    5  A    between atoms: _7  and  _8
REMARK    6  A    between atoms: _8  and  _9
REMARK    7  A    between atoms: _9  and  _10
REMARK    8  A    between atoms: _14  and  _16
REMARK    9  A    between atoms: _16  and  _17
REMARK   10  A    between atoms: _20  and  _22
REMARK   11  A    between atoms: _22  and  _23
REMARK   12  A    between atoms: _22  and  _25
REMARK   13  A    between atoms: _28  and  _30
REMARK   14  A    between atoms: _30  and  _31
REMARK   15  A    between atoms: _30  and  _33
REMARK   16  A    between atoms: _33  and  _34
REMARK   17  A    between atoms: _36  and  _38
REMARK   18  A    between atoms: _38  and  _39
REMARK   19  A    between atoms: _38  and  _41
REMARK   20  A    between atoms: _41  and  _42
REMARK   21  A    between atoms: _44  and  _46
REMARK   22  A    between atoms: _46  and  _47
REMARK   23  A    between atoms: _46  and  _49
REMARK   24  A    between atoms: _52  and  _54
REMARK   25  A    between atoms: _54  and  _55
REMARK   26  A    between atoms: _54  and  _57
REMARK   27  A    between atoms: _57  and  _58
REMARK   28  A    between atoms: _58  and  _59
REMARK   29  A    between atoms: _59  and  _60
REMARK   30  A    between atoms: _60  and  _61
REMARK   31  A    between atoms: _65  and  _67
REMARK   32  A    between atoms: _67  and  _68
REMARK   33  A    between atoms: _67  and  _70
REMARK   34  A    between atoms: _70  and  _71
REMARK   35  A    between atoms: _73  and  _75
REMARK   36  A    between atoms: _75  and  _76
REMARK   37  A    between atoms: _75  and  _78
REMARK   38  A    between atoms: _78  and  _79
REMARK   39  A    between atoms: _81  and  _83
REMARK   40  A    between atoms: _83  and  _84
REMARK   41  A    between atoms: _87  and  _89
REMARK   42  A    between atoms: _89  and  _90
REMARK   43  A    between atoms: _89  and  _92
REMARK   44  A    between atoms: _92  and  _93
REMARK   45  A    between atoms: _96  and  _98
REMARK   46  A    between atoms: _98  and  _99
REMARK   47  A    between atoms: _98  and  _101
REMARK   48  A    between atoms: _101  and  _102
REMARK   49  A    between atoms: _102  and  _103
REMARK   50  A    between atoms: _103  and  _104
REMARK   51  A    between atoms: _104  and  _105
REMARK   52  A    between atoms: _109  and  _111
REMARK   53  A    between atoms: _111  and  _112
REMARK   54  A    between atoms: _111  and  _114
REMARK   55  A    between atoms: _114  and  _115
REMARK   56  A    between atoms: _118  and  _120
REMARK   57  A    between atoms: _120  and  _121
REMARK   58  A    between atoms: _120  and  _123
REMARK   59  A    between atoms: _123  and  _124
REMARK   60  A    between atoms: _127  and  _129
REMARK   61  A    between atoms: _129  and  _130
REMARK   62  A    between atoms: _132  and  _134
REMARK   63  A    between atoms: _134  and  _135
REMARK   64  A    between atoms: _134  and  _137
REMARK   65  A    between atoms: _137  and  _138
REMARK   66  A    between atoms: _141  and  _143
REMARK   67  A    between atoms: _143  and  _144
REMARK   68  A    between atoms: _143  and  _146
REMARK   69  A    between atoms: _146  and  _147
REMARK   70  A    between atoms: _149  and  _151
REMARK   71  A    between atoms: _151  and  _152
REMARK   72  A    between atoms: _151  and  _154
REMARK   73  A    between atoms: _154  and  _155
REMARK   74  A    between atoms: _158  and  _160
REMARK   75  A    between atoms: _160  and  _161
REMARK   76  A    between atoms: _160  and  _163
REMARK   77  A    between atoms: _166  and  _168
REMARK   78  A    between atoms: _168  and  _169
REMARK   79  A    between atoms: _172  and  _174
REMARK   80  A    between atoms: _174  and  _175
REMARK   81  A    between atoms: _174  and  _177
REMARK   82  A    between atoms: _177  and  _178
REMARK   83  A    between atoms: _180  and  _182
REMARK   84  A    between atoms: _182  and  _183
REMARK   85  A    between atoms: _182  and  _185
REMARK   86  A    between atoms: _185  and  _186
REMARK   87  A    between atoms: _189  and  _191
REMARK   88  A    between atoms: _191  and  _192
REMARK   89  A    between atoms: _191  and  _194
REMARK   90  A    between atoms: _194  and  _195
REMARK   91  A    between atoms: _198  and  _200
REMARK   92  A    between atoms: _200  and  _201
REMARK   93  A    between atoms: _200  and  _203
REMARK   94  A    between atoms: _203  and  _204
REMARK   95  A    between atoms: _209  and  _210
REMARK   96  A    between atoms: _212  and  _214
REMARK   97  A    between atoms: _214  and  _215
REMARK   98  A    between atoms: _214  and  _217
REMARK   99  A    between atoms: _220  and  _222
REMARK  100  A    between atoms: _222  and  _223
REMARK  101  A    between atoms: _222  and  _225
REMARK  102  A    between atoms: _225  and  _226
REMARK  103  A    between atoms: _232  and  _234
REMARK  104  A    between atoms: _234  and  _235
REMARK  105  A    between atoms: _234  and  _237
REMARK  106  A    between atoms: _239  and  _241
REMARK  107  A    between atoms: _241  and  _242
REMARK  108  A    between atoms: _241  and  _244
REMARK  109  A    between atoms: _246  and  _248
REMARK  110  A    between atoms: _248  and  _249
REMARK  111  A    between atoms: _251  and  _253
REMARK  112  A    between atoms: _253  and  _254
REMARK  113  A    between atoms: _253  and  _256
REMARK  114  A    between atoms: _256  and  _257
REMARK  115  A    between atoms: _259  and  _261
REMARK  116  A    between atoms: _261  and  _262
REMARK  117  A    between atoms: _261  and  _264
REMARK  118  A    between atoms: _264  and  _265
REMARK  119  A    between atoms: _271  and  _273
REMARK  120  A    between atoms: _273  and  _274
REMARK  121  A    between atoms: _273  and  _276
REMARK  122  A    between atoms: _276  and  _277
REMARK  123  A    between atoms: _281  and  _282
REMARK  124  A    between atoms: _287  and  _289
REMARK  125  A    between atoms: _289  and  _290
REMARK  126  A    between atoms: _289  and  _292
REMARK  127  A    between atoms: _295  and  _297
REMARK  128  A    between atoms: _297  and  _298
REMARK  129  A    between atoms: _297  and  _300
REMARK  130  A    between atoms: _300  and  _301
REMARK  131  A    between atoms: _303  and  _305
REMARK  132  A    between atoms: _305  and  _306
REMARK  133  A    between atoms: _309  and  _311
REMARK  134  A    between atoms: _311  and  _312
REMARK  135  A    between atoms: _311  and  _314
REMARK  136  A    between atoms: _317  and  _319
REMARK  137  A    between atoms: _319  and  _320
REMARK  138  A    between atoms: _319  and  _322
REMARK  139  A    between atoms: _322  and  _323
REMARK  140  A    between atoms: _325  and  _327
REMARK  141  A    between atoms: _327  and  _328
REMARK  142  A    between atoms: _327  and  _330
REMARK  143  A    between atoms: _330  and  _331
REMARK  144  A    between atoms: _333  and  _335
REMARK  145  A    between atoms: _335  and  _336
REMARK  146  A    between atoms: _335  and  _338
REMARK  147  A    between atoms: _338  and  _339
REMARK  148  A    between atoms: _344  and  _345
REMARK  149  A    between atoms: _348  and  _349
REMARK  150  A    between atoms: _354  and  _356
REMARK  151  A    between atoms: _356  and  _357
REMARK  152  A    between atoms: _356  and  _359
REMARK  153  A    between atoms: _362  and  _364
REMARK  154  A    between atoms: _364  and  _365
REMARK  155  A    between atoms: _364  and  _367
REMARK  156  A    between atoms: _367  and  _368
REMARK  157  A    between atoms: _370  and  _372
REMARK  158  A    between atoms: _372  and  _373
REMARK  159  A    between atoms: _372  and  _375
REMARK  160  A    between atoms: _375  and  _376
REMARK  161  A    between atoms: _382  and  _384
REMARK  162  A    between atoms: _384  and  _385
REMARK  163  A    between atoms: _384  and  _387
REMARK  164  A    between atoms: _387  and  _388
REMARK  165  A    between atoms: _391  and  _393
REMARK  166  A    between atoms: _393  and  _394
REMARK  167  A    between atoms: _393  and  _396
REMARK  168  A    between atoms: _396  and  _397
REMARK  169  A    between atoms: _397  and  _398
REMARK  170  A    between atoms: _398  and  _399
REMARK  171  A    between atoms: _399  and  _400
REMARK  172  A    between atoms: _404  and  _406
REMARK  173  A    between atoms: _406  and  _407
REMARK  174  A    between atoms: _406  and  _409
REMARK  175  A    between atoms: _409  and  _410
REMARK  176  A    between atoms: _415  and  _416
REMARK  177  A    between atoms: _418  and  _420
REMARK  178  A    between atoms: _420  and  _421
REMARK  179  A    between atoms: _420  and  _423
REMARK  180  A    between atoms: _425  and  _427
REMARK  181  A    between atoms: _427  and  _428
REMARK  182  A    between atoms: _427  and  _430
REMARK  183  A    between atoms: _430  and  _431
REMARK  184  A    between atoms: _434  and  _436
REMARK  185  A    between atoms: _436  and  _437
REMARK  186  A    between atoms: _436  and  _439
REMARK  187  A    between atoms: _439  and  _440
REMARK  188  A    between atoms: _446  and  _448
REMARK  189  A    between atoms: _448  and  _449
REMARK  190  A    between atoms: _448  and  _451
REMARK  191  A    between atoms: _454  and  _456
REMARK  192  A    between atoms: _456  and  _457
REMARK  193  A    between atoms: _456  and  _459
REMARK  194  A    between atoms: _459  and  _460
REMARK  195  A    between atoms: _463  and  _465
REMARK  196  A    between atoms: _465  and  _466
REMARK  197  A    between atoms: _465  and  _468
REMARK  198  A    between atoms: _468  and  _469
REMARK  199  A    between atoms: _471  and  _473
REMARK  200  A    between atoms: _473  and  _474
REMARK  201  A    between atoms: _473  and  _476
REMARK  202  A    between atoms: _476  and  _477
REMARK  203  A    between atoms: _480  and  _482
REMARK  204  A    between atoms: _482  and  _483
REMARK  205  A    between atoms: _486  and  _488
REMARK  206  A    between atoms: _488  and  _489
REMARK  207  A    between atoms: _488  and  _491
REMARK  208  A    between atoms: _491  and  _492
REMARK  209  A    between atoms: _495  and  _497
REMARK  210  A    between atoms: _497  and  _498
REMARK  211  A    between atoms: _497  and  _500
REMARK  212  A    between atoms: _500  and  _501
REMARK  213  A    between atoms: _501  and  _502
REMARK                            x       y       z     vdW  Elec       q    Type
REMARK                         _______ _______ _______ _____ _____    ______ ____
ROOT
ATOM      1  O   HOH     1     -11.002 -21.827  10.433  0.00  0.00    +0.000 OA
ENDROOT
TORSDOF 0
REMARK  Name = ../refined-set-2016/4ql1/4ql1_pocket.pdb
REMARK  213 active torsions:
REMARK  status: ('A' for Active; 'I' for Inactive)
REMARK    1  A    between atoms: _1  and  _3
REMARK    2  A    between atoms: _3  and  _4
REMARK    3  A    between atoms: _3  and  _6
REMARK    4  A    between atoms: _6  and  _7
REMARK    5  A    between atoms: _7  and  _8
REMARK    6  A    between atoms: _8  and  _9
REMARK    7  A    between atoms: _9  and  _10
REMARK    8  A    between atoms: _14  and  _16
REMARK    9  A    between atoms: _16  and  _17
REMARK   10  A    between atoms: _20  and  _22
REMARK   11  A    between atoms: _22  and  _23
REMARK   12  A    between atoms: _22  and  _25
REMARK   13  A    between atoms: _28  and  _30
REMARK   14  A    between atoms: _30  and  _31
REMARK   15  A    between atoms: _30  and  _33
REMARK   16  A    between atoms: _33  and  _34
REMARK   17  A    between atoms: _36  and  _38
REMARK   18  A    between atoms: _38  and  _39
REMARK   19  A    between atoms: _38  and  _41
REMARK   20  A    between atoms: _41  and  _42
REMARK   21  A    between atoms: _44  and  _46
REMARK   22  A    between atoms: _46  and  _47
REMARK   23  A    between atoms: _46  and  _49
REMARK   24  A    between atoms: _52  and  _54
REMARK   25  A    between atoms: _54  and  _55
REMARK   26  A    between atoms: _54  and  _57
REMARK   27  A    between atoms: _57  and  _58
REMARK   28  A    between atoms: _58  and  _59
REMARK   29  A    between atoms: _59  and  _60
REMARK   30  A    between atoms: _60  and  _61
REMARK   31  A    between atoms: _65  and  _67
REMARK   32  A    between atoms: _67  and  _68
REMARK   33  A    between atoms: _67  and  _70
REMARK   34  A    between atoms: _70  and  _71
REMARK   35  A    between atoms: _73  and  _75
REMARK   36  A    between atoms: _75  and  _76
REMARK   37  A    between atoms: _75  and  _78
REMARK   38  A    between atoms: _78  and  _79
REMARK   39  A    between atoms: _81  and  _83
REMARK   40  A    between atoms: _83  and  _84
REMARK   41  A    between atoms: _87  and  _89
REMARK   42  A    between atoms: _89  and  _90
REMARK   43  A    between atoms: _89  and  _92
REMARK   44  A    between atoms: _92  and  _93
REMARK   45  A    between atoms: _96  and  _98
REMARK   46  A    between atoms: _98  and  _99
REMARK   47  A    between atoms: _98  and  _101
REMARK   48  A    between atoms: _101  and  _102
REMARK   49  A    between atoms: _102  and  _103
REMARK   50  A    between atoms: _103  and  _104
REMARK   51  A    between atoms: _104  and  _105
REMARK   52  A    between atoms: _109  and  _111
REMARK   53  A    between atoms: _111  and  _112
REMARK   54  A    between atoms: _111  and  _114
REMARK   55  A    between atoms: _114  and  _115
REMARK   56  A    between atoms: _118  and  _120
REMARK   57  A    between atoms: _120  and  _121
REMARK   58  A    between atoms: _120  and  _123
REMARK   59  A    between atoms: _123  and  _124
REMARK   60  A    between atoms: _127  and  _129
REMARK   61  A    between atoms: _129  and  _130
REMARK   62  A    between atoms: _132  and  _134
REMARK   63  A    between atoms: _134  and  _135
REMARK   64  A    between atoms: _134  and  _137
REMARK   65  A    between atoms: _137  and  _138
REMARK   66  A    between atoms: _141  and  _143
REMARK   67  A    between atoms: _143  and  _144
REMARK   68  A    between atoms: _143  and  _146
REMARK   69  A    between atoms: _146  and  _147
REMARK   70  A    between atoms: _149  and  _151
REMARK   71  A    between atoms: _151  and  _152
REMARK   72  A    between atoms: _151  and  _154
REMARK   73  A    between atoms: _154  and  _155
REMARK   74  A    between atoms: _158  and  _160
REMARK   75  A    between atoms: _160  and  _161
REMARK   76  A    between atoms: _160  and  _163
REMARK   77  A    between atoms: _166  and  _168
REMARK   78  A    between atoms: _168  and  _169
REMARK   79  A    between atoms: _172  and  _174
REMARK   80  A    between atoms: _174  and  _175
REMARK   81  A    between atoms: _174  and  _177
REMARK   82  A    between atoms: _177  and  _178
REMARK   83  A    between atoms: _180  and  _182
REMARK   84  A    between atoms: _182  and  _183
REMARK   85  A    between atoms: _182  and  _185
REMARK   86  A    between atoms: _185  and  _186
REMARK   87  A    between atoms: _189  and  _191
REMARK   88  A    between atoms: _191  and  _192
REMARK   89  A    between atoms: _191  and  _194
REMARK   90  A    between atoms: _194  and  _195
REMARK   91  A    between atoms: _198  and  _200
REMARK   92  A    between atoms: _200  and  _201
REMARK   93  A    between atoms: _200  and  _203
REMARK   94  A    between atoms: _203  and  _204
REMARK   95  A    between atoms: _209  and  _210
REMARK   96  A    between atoms: _212  and  _214
REMARK   97  A    between atoms: _214  and  _215
REMARK   98  A    between atoms: _214  and  _217
REMARK   99  A    between atoms: _220  and  _222
REMARK  100  A    between atoms: _222  and  _223
REMARK  101  A    between atoms: _222  and  _225
REMARK  102  A    between atoms: _225  and  _226
REMARK  103  A    between atoms: _232  and  _234
REMARK  104  A    between atoms: _234  and  _235
REMARK  105  A    between atoms: _234  and  _237
REMARK  106  A    between atoms: _239  and  _241
REMARK  107  A    between atoms: _241  and  _242
REMARK  108  A    between atoms: _241  and  _244
REMARK  109  A    between atoms: _246  and  _248
REMARK  110  A    between atoms: _248  and  _249
REMARK  111  A    between atoms: _251  and  _253
REMARK  112  A    between atoms: _253  and  _254
REMARK  113  A    between atoms: _253  and  _256
REMARK  114  A    between atoms: _256  and  _257
REMARK  115  A    between atoms: _259  and  _261
REMARK  116  A    between atoms: _261  and  _262
REMARK  117  A    between atoms: _261  and  _264
REMARK  118  A    between atoms: _264  and  _265
REMARK  119  A    between atoms: _271  and  _273
REMARK  120  A    between atoms: _273  and  _274
REMARK  121  A    between atoms: _273  and  _276
REMARK  122  A    between atoms: _276  and  _277
REMARK  123  A    between atoms: _281  and  _282
REMARK  124  A    between atoms: _287  and  _289
REMARK  125  A    between atoms: _289  and  _290
REMARK  126  A    between atoms: _289  and  _292
REMARK  127  A    between atoms: _295  and  _297
REMARK  128  A    between atoms: _297  and  _298
REMARK  129  A    between atoms: _297  and  _300
REMARK  130  A    between atoms: _300  and  _301
REMARK  131  A    between atoms: _303  and  _305
REMARK  132  A    between atoms: _305  and  _306
REMARK  133  A    between atoms: _309  and  _311
REMARK  134  A    between atoms: _311  and  _312
REMARK  135  A    between atoms: _311  and  _314
REMARK  136  A    between atoms: _317  and  _319
REMARK  137  A    between atoms: _319  and  _320
REMARK  138  A    between atoms: _319  and  _322
REMARK  139  A    between atoms: _322  and  _323
REMARK  140  A    between atoms: _325  and  _327
REMARK  141  A    between atoms: _327  and  _328
REMARK  142  A    between atoms: _327  and  _330
REMARK  143  A    between atoms: _330  and  _331
REMARK  144  A    between atoms: _333  and  _335
REMARK  145  A    between atoms: _335  and  _336
REMARK  146  A    between atoms: _335  and  _338
REMARK  147  A    between atoms: _338  and  _339
REMARK  148  A    between atoms: _344  and  _345
REMARK  149  A    between atoms: _348  and  _349
REMARK  150  A    between atoms: _354  and  _356
REMARK  151  A    between atoms: _356  and  _357
REMARK  152  A    between atoms: _356  and  _359
REMARK  153  A    between atoms: _362  and  _364
REMARK  154  A    between atoms: _364  and  _365
REMARK  155  A    between atoms: _364  and  _367
REMARK  156  A    between atoms: _367  and  _368
REMARK  157  A    between atoms: _370  and  _372
REMARK  158  A    between atoms: _372  and  _373
REMARK  159  A    between atoms: _372  and  _375
REMARK  160  A    between atoms: _375  and  _376
REMARK  161  A    between atoms: _382  and  _384
REMARK  162  A    between atoms: _384  and  _385
REMARK  163  A    between atoms: _384  and  _387
REMARK  164  A    between atoms: _387  and  _388
REMARK  165  A    between atoms: _391  and  _393
REMARK  166  A    between atoms: _393  and  _394
REMARK  167  A    between atoms: _393  and  _396
REMARK  168  A    between atoms: _396  and  _397
REMARK  169  A    between atoms: _397  and  _398
REMARK  170  A    between atoms: _398  and  _399
REMARK  171  A    between atoms: _399  and  _400
REMARK  172  A    between atoms: _404  and  _406
REMARK  173  A    between atoms: _406  and  _407
REMARK  174  A    between atoms: _406  and  _409
REMARK  175  A    between atoms: _409  and  _410
REMARK  176  A    between atoms: _415  and  _416
REMARK  177  A    between atoms: _418  and  _420
REMARK  178  A    between atoms: _420  and  _421
REMARK  179  A    between atoms: _420  and  _423
REMARK  180  A    between atoms: _425  and  _427
REMARK  181  A    between atoms: _427  and  _428
REMARK  182  A    between atoms: _427  and  _430
REMARK  183  A    between atoms: _430  and  _431
REMARK  184  A    between atoms: _434  and  _436
REMARK  185  A    between atoms: _436  and  _437
REMARK  186  A    between atoms: _436  and  _439
REMARK  187  A    between atoms: _439  and  _440
REMARK  188  A    between atoms: _446  and  _448
REMARK  189  A    between atoms: _448  and  _449
REMARK  190  A    between atoms: _448  and  _451
REMARK  191  A    between atoms: _454  and  _456
REMARK  192  A    between atoms: _456  and  _457
REMARK  193  A    between atoms: _456  and  _459
REMARK  194  A    between atoms: _459  and  _460
REMARK  195  A    between atoms: _463  and  _465
REMARK  196  A    between atoms: _465  and  _466
REMARK  197  A    between atoms: _465  and  _468
REMARK  198  A    between atoms: _468  and  _469
REMARK  199  A    between atoms: _471  and  _473
REMARK  200  A    between atoms: _473  and  _474
REMARK  201  A    between atoms: _473  and  _476
REMARK  202  A    between atoms: _476  and  _477
REMARK  203  A    between atoms: _480  and  _482
REMARK  204  A    between atoms: _482  and  _483
REMARK  205  A    between atoms: _486  and  _488
REMARK  206  A    between atoms: _488  and  _489
REMARK  207  A    between atoms: _488  and  _491
REMARK  208  A    between atoms: _491  and  _492
REMARK  209  A    between atoms: _495  and  _497
REMARK  210  A    between atoms: _497  and  _498
REMARK  211  A    between atoms: _497  and  _500
REMARK  212  A    between atoms: _500  and  _501
REMARK  213  A    between atoms: _501  and  _502
REMARK                            x       y       z     vdW  Elec       q    Type
REMARK                         _______ _______ _______ _____ _____    ______ ____
ROOT
ATOM      1  O   HOH     1     -16.010 -23.309   6.779  0.00  0.00    +0.000 OA
ENDROOT
TORSDOF 0
REMARK  Name = ../refined-set-2016/4ql1/4ql1_pocket.pdb
REMARK  213 active torsions:
REMARK  status: ('A' for Active; 'I' for Inactive)
REMARK    1  A    between atoms: _1  and  _3
REMARK    2  A    between atoms: _3  and  _4
REMARK    3  A    between atoms: _3  and  _6
REMARK    4  A    between atoms: _6  and  _7
REMARK    5  A    between atoms: _7  and  _8
REMARK    6  A    between atoms: _8  and  _9
REMARK    7  A    between atoms: _9  and  _10
REMARK    8  A    between atoms: _14  and  _16
REMARK    9  A    between atoms: _16  and  _17
REMARK   10  A    between atoms: _20  and  _22
REMARK   11  A    between atoms: _22  and  _23
REMARK   12  A    between atoms: _22  and  _25
REMARK   13  A    between atoms: _28  and  _30
REMARK   14  A    between atoms: _30  and  _31
REMARK   15  A    between atoms: _30  and  _33
REMARK   16  A    between atoms: _33  and  _34
REMARK   17  A    between atoms: _36  and  _38
REMARK   18  A    between atoms: _38  and  _39
REMARK   19  A    between atoms: _38  and  _41
REMARK   20  A    between atoms: _41  and  _42
REMARK   21  A    between atoms: _44  and  _46
REMARK   22  A    between atoms: _46  and  _47
REMARK   23  A    between atoms: _46  and  _49
REMARK   24  A    between atoms: _52  and  _54
REMARK   25  A    between atoms: _54  and  _55
REMARK   26  A    between atoms: _54  and  _57
REMARK   27  A    between atoms: _57  and  _58
REMARK   28  A    between atoms: _58  and  _59
REMARK   29  A    between atoms: _59  and  _60
REMARK   30  A    between atoms: _60  and  _61
REMARK   31  A    between atoms: _65  and  _67
REMARK   32  A    between atoms: _67  and  _68
REMARK   33  A    between atoms: _67  and  _70
REMARK   34  A    between atoms: _70  and  _71
REMARK   35  A    between atoms: _73  and  _75
REMARK   36  A    between atoms: _75  and  _76
REMARK   37  A    between atoms: _75  and  _78
REMARK   38  A    between atoms: _78  and  _79
REMARK   39  A    between atoms: _81  and  _83
REMARK   40  A    between atoms: _83  and  _84
REMARK   41  A    between atoms: _87  and  _89
REMARK   42  A    between atoms: _89  and  _90
REMARK   43  A    between atoms: _89  and  _92
REMARK   44  A    between atoms: _92  and  _93
REMARK   45  A    between atoms: _96  and  _98
REMARK   46  A    between atoms: _98  and  _99
REMARK   47  A    between atoms: _98  and  _101
REMARK   48  A    between atoms: _101  and  _102
REMARK   49  A    between atoms: _102  and  _103
REMARK   50  A    between atoms: _103  and  _104
REMARK   51  A    between atoms: _104  and  _105
REMARK   52  A    between atoms: _109  and  _111
REMARK   53  A    between atoms: _111  and  _112
REMARK   54  A    between atoms: _111  and  _114
REMARK   55  A    between atoms: _114  and  _115
REMARK   56  A    between atoms: _118  and  _120
REMARK   57  A    between atoms: _120  and  _121
REMARK   58  A    between atoms: _120  and  _123
REMARK   59  A    between atoms: _123  and  _124
REMARK   60  A    between atoms: _127  and  _129
REMARK   61  A    between atoms: _129  and  _130
REMARK   62  A    between atoms: _132  and  _134
REMARK   63  A    between atoms: _134  and  _135
REMARK   64  A    between atoms: _134  and  _137
REMARK   65  A    between atoms: _137  and  _138
REMARK   66  A    between atoms: _141  and  _143
REMARK   67  A    between atoms: _143  and  _144
REMARK   68  A    between atoms: _143  and  _146
REMARK   69  A    between atoms: _146  and  _147
REMARK   70  A    between atoms: _149  and  _151
REMARK   71  A    between atoms: _151  and  _152
REMARK   72  A    between atoms: _151  and  _154
REMARK   73  A    between atoms: _154  and  _155
REMARK   74  A    between atoms: _158  and  _160
REMARK   75  A    between atoms: _160  and  _161
REMARK   76  A    between atoms: _160  and  _163
REMARK   77  A    between atoms: _166  and  _168
REMARK   78  A    between atoms: _168  and  _169
REMARK   79  A    between atoms: _172  and  _174
REMARK   80  A    between atoms: _174  and  _175
REMARK   81  A    between atoms: _174  and  _177
REMARK   82  A    between atoms: _177  and  _178
REMARK   83  A    between atoms: _180  and  _182
REMARK   84  A    between atoms: _182  and  _183
REMARK   85  A    between atoms: _182  and  _185
REMARK   86  A    between atoms: _185  and  _186
REMARK   87  A    between atoms: _189  and  _191
REMARK   88  A    between atoms: _191  and  _192
REMARK   89  A    between atoms: _191  and  _194
REMARK   90  A    between atoms: _194  and  _195
REMARK   91  A    between atoms: _198  and  _200
REMARK   92  A    between atoms: _200  and  _201
REMARK   93  A    between atoms: _200  and  _203
REMARK   94  A    between atoms: _203  and  _204
REMARK   95  A    between atoms: _209  and  _210
REMARK   96  A    between atoms: _212  and  _214
REMARK   97  A    between atoms: _214  and  _215
REMARK   98  A    between atoms: _214  and  _217
REMARK   99  A    between atoms: _220  and  _222
REMARK  100  A    between atoms: _222  and  _223
REMARK  101  A    between atoms: _222  and  _225
REMARK  102  A    between atoms: _225  and  _226
REMARK  103  A    between atoms: _232  and  _234
REMARK  104  A    between atoms: _234  and  _235
REMARK  105  A    between atoms: _234  and  _237
REMARK  106  A    between atoms: _239  and  _241
REMARK  107  A    between atoms: _241  and  _242
REMARK  108  A    between atoms: _241  and  _244
REMARK  109  A    between atoms: _246  and  _248
REMARK  110  A    between atoms: _248  and  _249
REMARK  111  A    between atoms: _251  and  _253
REMARK  112  A    between atoms: _253  and  _254
REMARK  113  A    between atoms: _253  and  _256
REMARK  114  A    between atoms: _256  and  _257
REMARK  115  A    between atoms: _259  and  _261
REMARK  116  A    between atoms: _261  and  _262
REMARK  117  A    between atoms: _261  and  _264
REMARK  118  A    between atoms: _264  and  _265
REMARK  119  A    between atoms: _271  and  _273
REMARK  120  A    between atoms: _273  and  _274
REMARK  121  A    between atoms: _273  and  _276
REMARK  122  A    between atoms: _276  and  _277
REMARK  123  A    between atoms: _281  and  _282
REMARK  124  A    between atoms: _287  and  _289
REMARK  125  A    between atoms: _289  and  _290
REMARK  126  A    between atoms: _289  and  _292
REMARK  127  A    between atoms: _295  and  _297
REMARK  128  A    between atoms: _297  and  _298
REMARK  129  A    between atoms: _297  and  _300
REMARK  130  A    between atoms: _300  and  _301
REMARK  131  A    between atoms: _303  and  _305
REMARK  132  A    between atoms: _305  and  _306
REMARK  133  A    between atoms: _309  and  _311
REMARK  134  A    between atoms: _311  and  _312
REMARK  135  A    between atoms: _311  and  _314
REMARK  136  A    between atoms: _317  and  _319
REMARK  137  A    between atoms: _319  and  _320
REMARK  138  A    between atoms: _319  and  _322
REMARK  139  A    between atoms: _322  and  _323
REMARK  140  A    between atoms: _325  and  _327
REMARK  141  A    between atoms: _327  and  _328
REMARK  142  A    between atoms: _327  and  _330
REMARK  143  A    between atoms: _330  and  _331
REMARK  144  A    between atoms: _333  and  _335
REMARK  145  A    between atoms: _335  and  _336
REMARK  146  A    between atoms: _335  and  _338
REMARK  147  A    between atoms: _338  and  _339
REMARK  148  A    between atoms: _344  and  _345
REMARK  149  A    between atoms: _348  and  _349
REMARK  150  A    between atoms: _354  and  _356
REMARK  151  A    between atoms: _356  and  _357
REMARK  152  A    between atoms: _356  and  _359
REMARK  153  A    between atoms: _362  and  _364
REMARK  154  A    between atoms: _364  and  _365
REMARK  155  A    between atoms: _364  and  _367
REMARK  156  A    between atoms: _367  and  _368
REMARK  157  A    between atoms: _370  and  _372
REMARK  158  A    between atoms: _372  and  _373
REMARK  159  A    between atoms: _372  and  _375
REMARK  160  A    between atoms: _375  and  _376
REMARK  161  A    between atoms: _382  and  _384
REMARK  162  A    between atoms: _384  and  _385
REMARK  163  A    between atoms: _384  and  _387
REMARK  164  A    between atoms: _387  and  _388
REMARK  165  A    between atoms: _391  and  _393
REMARK  166  A    between atoms: _393  and  _394
REMARK  167  A    between atoms: _393  and  _396
REMARK  168  A    between atoms: _396  and  _397
REMARK  169  A    between atoms: _397  and  _398
REMARK  170  A    between atoms: _398  and  _399
REMARK  171  A    between atoms: _399  and  _400
REMARK  172  A    between atoms: _404  and  _406
REMARK  173  A    between atoms: _406  and  _407
REMARK  174  A    between atoms: _406  and  _409
REMARK  175  A    between atoms: _409  and  _410
REMARK  176  A    between atoms: _415  and  _416
REMARK  177  A    between atoms: _418  and  _420
REMARK  178  A    between atoms: _420  and  _421
REMARK  179  A    between atoms: _420  and  _423
REMARK  180  A    between atoms: _425  and  _427
REMARK  181  A    between atoms: _427  and  _428
REMARK  182  A    between atoms: _427  and  _430
REMARK  183  A    between atoms: _430  and  _431
REMARK  184  A    between atoms: _434  and  _436
REMARK  185  A    between atoms: _436  and  _437
REMARK  186  A    between atoms: _436  and  _439
REMARK  187  A    between atoms: _439  and  _440
REMARK  188  A    between atoms: _446  and  _448
REMARK  189  A    between atoms: _448  and  _449
REMARK  190  A    between atoms: _448  and  _451
REMARK  191  A    between atoms: _454  and  _456
REMARK  192  A    between atoms: _456  and  _457
REMARK  193  A    between atoms: _456  and  _459
REMARK  194  A    between atoms: _459  and  _460
REMARK  195  A    between atoms: _463  and  _465
REMARK  196  A    between atoms: _465  and  _466
REMARK  197  A    between atoms: _465  and  _468
REMARK  198  A    between atoms: _468  and  _469
REMARK  199  A    between atoms: _471  and  _473
REMARK  200  A    between atoms: _473  and  _474
REMARK  201  A    between atoms: _473  and  _476
REMARK  202  A    between atoms: _476  and  _477
REMARK  203  A    between atoms: _480  and  _482
REMARK  204  A    between atoms: _482  and  _483
REMARK  205  A    between atoms: _486  and  _488
REMARK  206  A    between atoms: _488  and  _489
REMARK  207  A    between atoms: _488  and  _491
REMARK  208  A    between atoms: _491  and  _492
REMARK  209  A    between atoms: _495  and  _497
REMARK  210  A    between atoms: _497  and  _498
REMARK  211  A    between atoms: _497  and  _500
REMARK  212  A    between atoms: _500  and  _501
REMARK  213  A    between atoms: _501  and  _502
REMARK                            x       y       z     vdW  Elec       q    Type
REMARK                         _______ _______ _______ _____ _____    ______ ____
ROOT
ATOM      1  O   HOH     1     -18.758 -21.356  10.054  0.00  0.00    +0.000 OA
ENDROOT
TORSDOF 0
REMARK  Name = ../refined-set-2016/4ql1/4ql1_pocket.pdb
REMARK  213 active torsions:
REMARK  status: ('A' for Active; 'I' for Inactive)
REMARK    1  A    between atoms: _1  and  _3
REMARK    2  A    between atoms: _3  and  _4
REMARK    3  A    between atoms: _3  and  _6
REMARK    4  A    between atoms: _6  and  _7
REMARK    5  A    between atoms: _7  and  _8
REMARK    6  A    between atoms: _8  and  _9
REMARK    7  A    between atoms: _9  and  _10
REMARK    8  A    between atoms: _14  and  _16
REMARK    9  A    between atoms: _16  and  _17
REMARK   10  A    between atoms: _20  and  _22
REMARK   11  A    between atoms: _22  and  _23
REMARK   12  A    between atoms: _22  and  _25
REMARK   13  A    between atoms: _28  and  _30
REMARK   14  A    between atoms: _30  and  _31
REMARK   15  A    between atoms: _30  and  _33
REMARK   16  A    between atoms: _33  and  _34
REMARK   17  A    between atoms: _36  and  _38
REMARK   18  A    between atoms: _38  and  _39
REMARK   19  A    between atoms: _38  and  _41
REMARK   20  A    between atoms: _41  and  _42
REMARK   21  A    between atoms: _44  and  _46
REMARK   22  A    between atoms: _46  and  _47
REMARK   23  A    between atoms: _46  and  _49
REMARK   24  A    between atoms: _52  and  _54
REMARK   25  A    between atoms: _54  and  _55
REMARK   26  A    between atoms: _54  and  _57
REMARK   27  A    between atoms: _57  and  _58
REMARK   28  A    between atoms: _58  and  _59
REMARK   29  A    between atoms: _59  and  _60
REMARK   30  A    between atoms: _60  and  _61
REMARK   31  A    between atoms: _65  and  _67
REMARK   32  A    between atoms: _67  and  _68
REMARK   33  A    between atoms: _67  and  _70
REMARK   34  A    between atoms: _70  and  _71
REMARK   35  A    between atoms: _73  and  _75
REMARK   36  A    between atoms: _75  and  _76
REMARK   37  A    between atoms: _75  and  _78
REMARK   38  A    between atoms: _78  and  _79
REMARK   39  A    between atoms: _81  and  _83
REMARK   40  A    between atoms: _83  and  _84
REMARK   41  A    between atoms: _87  and  _89
REMARK   42  A    between atoms: _89  and  _90
REMARK   43  A    between atoms: _89  and  _92
REMARK   44  A    between atoms: _92  and  _93
REMARK   45  A    between atoms: _96  and  _98
REMARK   46  A    between atoms: _98  and  _99
REMARK   47  A    between atoms: _98  and  _101
REMARK   48  A    between atoms: _101  and  _102
REMARK   49  A    between atoms: _102  and  _103
REMARK   50  A    between atoms: _103  and  _104
REMARK   51  A    between atoms: _104  and  _105
REMARK   52  A    between atoms: _109  and  _111
REMARK   53  A    between atoms: _111  and  _112
REMARK   54  A    between atoms: _111  and  _114
REMARK   55  A    between atoms: _114  and  _115
REMARK   56  A    between atoms: _118  and  _120
REMARK   57  A    between atoms: _120  and  _121
REMARK   58  A    between atoms: _120  and  _123
REMARK   59  A    between atoms: _123  and  _124
REMARK   60  A    between atoms: _127  and  _129
REMARK   61  A    between atoms: _129  and  _130
REMARK   62  A    between atoms: _132  and  _134
REMARK   63  A    between atoms: _134  and  _135
REMARK   64  A    between atoms: _134  and  _137
REMARK   65  A    between atoms: _137  and  _138
REMARK   66  A    between atoms: _141  and  _143
REMARK   67  A    between atoms: _143  and  _144
REMARK   68  A    between atoms: _143  and  _146
REMARK   69  A    between atoms: _146  and  _147
REMARK   70  A    between atoms: _149  and  _151
REMARK   71  A    between atoms: _151  and  _152
REMARK   72  A    between atoms: _151  and  _154
REMARK   73  A    between atoms: _154  and  _155
REMARK   74  A    between atoms: _158  and  _160
REMARK   75  A    between atoms: _160  and  _161
REMARK   76  A    between atoms: _160  and  _163
REMARK   77  A    between atoms: _166  and  _168
REMARK   78  A    between atoms: _168  and  _169
REMARK   79  A    between atoms: _172  and  _174
REMARK   80  A    between atoms: _174  and  _175
REMARK   81  A    between atoms: _174  and  _177
REMARK   82  A    between atoms: _177  and  _178
REMARK   83  A    between atoms: _180  and  _182
REMARK   84  A    between atoms: _182  and  _183
REMARK   85  A    between atoms: _182  and  _185
REMARK   86  A    between atoms: _185  and  _186
REMARK   87  A    between atoms: _189  and  _191
REMARK   88  A    between atoms: _191  and  _192
REMARK   89  A    between atoms: _191  and  _194
REMARK   90  A    between atoms: _194  and  _195
REMARK   91  A    between atoms: _198  and  _200
REMARK   92  A    between atoms: _200  and  _201
REMARK   93  A    between atoms: _200  and  _203
REMARK   94  A    between atoms: _203  and  _204
REMARK   95  A    between atoms: _209  and  _210
REMARK   96  A    between atoms: _212  and  _214
REMARK   97  A    between atoms: _214  and  _215
REMARK   98  A    between atoms: _214  and  _217
REMARK   99  A    between atoms: _220  and  _222
REMARK  100  A    between atoms: _222  and  _223
REMARK  101  A    between atoms: _222  and  _225
REMARK  102  A    between atoms: _225  and  _226
REMARK  103  A    between atoms: _232  and  _234
REMARK  104  A    between atoms: _234  and  _235
REMARK  105  A    between atoms: _234  and  _237
REMARK  106  A    between atoms: _239  and  _241
REMARK  107  A    between atoms: _241  and  _242
REMARK  108  A    between atoms: _241  and  _244
REMARK  109  A    between atoms: _246  and  _248
REMARK  110  A    between atoms: _248  and  _249
REMARK  111  A    between atoms: _251  and  _253
REMARK  112  A    between atoms: _253  and  _254
REMARK  113  A    between atoms: _253  and  _256
REMARK  114  A    between atoms: _256  and  _257
REMARK  115  A    between atoms: _259  and  _261
REMARK  116  A    between atoms: _261  and  _262
REMARK  117  A    between atoms: _261  and  _264
REMARK  118  A    between atoms: _264  and  _265
REMARK  119  A    between atoms: _271  and  _273
REMARK  120  A    between atoms: _273  and  _274
REMARK  121  A    between atoms: _273  and  _276
REMARK  122  A    between atoms: _276  and  _277
REMARK  123  A    between atoms: _281  and  _282
REMARK  124  A    between atoms: _287  and  _289
REMARK  125  A    between atoms: _289  and  _290
REMARK  126  A    between atoms: _289  and  _292
REMARK  127  A    between atoms: _295  and  _297
REMARK  128  A    between atoms: _297  and  _298
REMARK  129  A    between atoms: _297  and  _300
REMARK  130  A    between atoms: _300  and  _301
REMARK  131  A    between atoms: _303  and  _305
REMARK  132  A    between atoms: _305  and  _306
REMARK  133  A    between atoms: _309  and  _311
REMARK  134  A    between atoms: _311  and  _312
REMARK  135  A    between atoms: _311  and  _314
REMARK  136  A    between atoms: _317  and  _319
REMARK  137  A    between atoms: _319  and  _320
REMARK  138  A    between atoms: _319  and  _322
REMARK  139  A    between atoms: _322  and  _323
REMARK  140  A    between atoms: _325  and  _327
REMARK  141  A    between atoms: _327  and  _328
REMARK  142  A    between atoms: _327  and  _330
REMARK  143  A    between atoms: _330  and  _331
REMARK  144  A    between atoms: _333  and  _335
REMARK  145  A    between atoms: _335  and  _336
REMARK  146  A    between atoms: _335  and  _338
REMARK  147  A    between atoms: _338  and  _339
REMARK  148  A    between atoms: _344  and  _345
REMARK  149  A    between atoms: _348  and  _349
REMARK  150  A    between atoms: _354  and  _356
REMARK  151  A    between atoms: _356  and  _357
REMARK  152  A    between atoms: _356  and  _359
REMARK  153  A    between atoms: _362  and  _364
REMARK  154  A    between atoms: _364  and  _365
REMARK  155  A    between atoms: _364  and  _367
REMARK  156  A    between atoms: _367  and  _368
REMARK  157  A    between atoms: _370  and  _372
REMARK  158  A    between atoms: _372  and  _373
REMARK  159  A    between atoms: _372  and  _375
REMARK  160  A    between atoms: _375  and  _376
REMARK  161  A    between atoms: _382  and  _384
REMARK  162  A    between atoms: _384  and  _385
REMARK  163  A    between atoms: _384  and  _387
REMARK  164  A    between atoms: _387  and  _388
REMARK  165  A    between atoms: _391  and  _393
REMARK  166  A    between atoms: _393  and  _394
REMARK  167  A    between atoms: _393  and  _396
REMARK  168  A    between atoms: _396  and  _397
REMARK  169  A    between atoms: _397  and  _398
REMARK  170  A    between atoms: _398  and  _399
REMARK  171  A    between atoms: _399  and  _400
REMARK  172  A    between atoms: _404  and  _406
REMARK  173  A    between atoms: _406  and  _407
REMARK  174  A    between atoms: _406  and  _409
REMARK  175  A    between atoms: _409  and  _410
REMARK  176  A    between atoms: _415  and  _416
REMARK  177  A    between atoms: _418  and  _420
REMARK  178  A    between atoms: _420  and  _421
REMARK  179  A    between atoms: _420  and  _423
REMARK  180  A    between atoms: _425  and  _427
REMARK  181  A    between atoms: _427  and  _428
REMARK  182  A    between atoms: _427  and  _430
REMARK  183  A    between atoms: _430  and  _431
REMARK  184  A    between atoms: _434  and  _436
REMARK  185  A    between atoms: _436  and  _437
REMARK  186  A    between atoms: _436  and  _439
REMARK  187  A    between atoms: _439  and  _440
REMARK  188  A    between atoms: _446  and  _448
REMARK  189  A    between atoms: _448  and  _449
REMARK  190  A    between atoms: _448  and  _451
REMARK  191  A    between atoms: _454  and  _456
REMARK  192  A    between atoms: _456  and  _457
REMARK  193  A    between atoms: _456  and  _459
REMARK  194  A    between atoms: _459  and  _460
REMARK  195  A    between atoms: _463  and  _465
REMARK  196  A    between atoms: _465  and  _466
REMARK  197  A    between atoms: _465  and  _468
REMARK  198  A    between atoms: _468  and  _469
REMARK  199  A    between atoms: _471  and  _473
REMARK  200  A    between atoms: _473  and  _474
REMARK  201  A    between atoms: _473  and  _476
REMARK  202  A    between atoms: _476  and  _477
REMARK  203  A    between atoms: _480  and  _482
REMARK  204  A    between atoms: _482  and  _483
REMARK  205  A    between atoms: _486  and  _488
REMARK  206  A    between atoms: _488  and  _489
REMARK  207  A    between atoms: _488  and  _491
REMARK  208  A    between atoms: _491  and  _492
REMARK  209  A    between atoms: _495  and  _497
REMARK  210  A    between atoms: _497  and  _498
REMARK  211  A    between atoms: _497  and  _500
REMARK  212  A    between atoms: _500  and  _501
REMARK  213  A    between atoms: _501  and  _502
REMARK                            x       y       z     vdW  Elec       q    Type
REMARK                         _______ _______ _______ _____ _____    ______ ____
ROOT
ATOM      1  O   HOH     1     -12.743 -21.760  -5.668  0.00  0.00    +0.000 OA
ENDROOT
TORSDOF 0
REMARK  Name = ../refined-set-2016/4ql1/4ql1_pocket.pdb
REMARK  213 active torsions:
REMARK  status: ('A' for Active; 'I' for Inactive)
REMARK    1  A    between atoms: _1  and  _3
REMARK    2  A    between atoms: _3  and  _4
REMARK    3  A    between atoms: _3  and  _6
REMARK    4  A    between atoms: _6  and  _7
REMARK    5  A    between atoms: _7  and  _8
REMARK    6  A    between atoms: _8  and  _9
REMARK    7  A    between atoms: _9  and  _10
REMARK    8  A    between atoms: _14  and  _16
REMARK    9  A    between atoms: _16  and  _17
REMARK   10  A    between atoms: _20  and  _22
REMARK   11  A    between atoms: _22  and  _23
REMARK   12  A    between atoms: _22  and  _25
REMARK   13  A    between atoms: _28  and  _30
REMARK   14  A    between atoms: _30  and  _31
REMARK   15  A    between atoms: _30  and  _33
REMARK   16  A    between atoms: _33  and  _34
REMARK   17  A    between atoms: _36  and  _38
REMARK   18  A    between atoms: _38  and  _39
REMARK   19  A    between atoms: _38  and  _41
REMARK   20  A    between atoms: _41  and  _42
REMARK   21  A    between atoms: _44  and  _46
REMARK   22  A    between atoms: _46  and  _47
REMARK   23  A    between atoms: _46  and  _49
REMARK   24  A    between atoms: _52  and  _54
REMARK   25  A    between atoms: _54  and  _55
REMARK   26  A    between atoms: _54  and  _57
REMARK   27  A    between atoms: _57  and  _58
REMARK   28  A    between atoms: _58  and  _59
REMARK   29  A    between atoms: _59  and  _60
REMARK   30  A    between atoms: _60  and  _61
REMARK   31  A    between atoms: _65  and  _67
REMARK   32  A    between atoms: _67  and  _68
REMARK   33  A    between atoms: _67  and  _70
REMARK   34  A    between atoms: _70  and  _71
REMARK   35  A    between atoms: _73  and  _75
REMARK   36  A    between atoms: _75  and  _76
REMARK   37  A    between atoms: _75  and  _78
REMARK   38  A    between atoms: _78  and  _79
REMARK   39  A    between atoms: _81  and  _83
REMARK   40  A    between atoms: _83  and  _84
REMARK   41  A    between atoms: _87  and  _89
REMARK   42  A    between atoms: _89  and  _90
REMARK   43  A    between atoms: _89  and  _92
REMARK   44  A    between atoms: _92  and  _93
REMARK   45  A    between atoms: _96  and  _98
REMARK   46  A    between atoms: _98  and  _99
REMARK   47  A    between atoms: _98  and  _101
REMARK   48  A    between atoms: _101  and  _102
REMARK   49  A    between atoms: _102  and  _103
REMARK   50  A    between atoms: _103  and  _104
REMARK   51  A    between atoms: _104  and  _105
REMARK   52  A    between atoms: _109  and  _111
REMARK   53  A    between atoms: _111  and  _112
REMARK   54  A    between atoms: _111  and  _114
REMARK   55  A    between atoms: _114  and  _115
REMARK   56  A    between atoms: _118  and  _120
REMARK   57  A    between atoms: _120  and  _121
REMARK   58  A    between atoms: _120  and  _123
REMARK   59  A    between atoms: _123  and  _124
REMARK   60  A    between atoms: _127  and  _129
REMARK   61  A    between atoms: _129  and  _130
REMARK   62  A    between atoms: _132  and  _134
REMARK   63  A    between atoms: _134  and  _135
REMARK   64  A    between atoms: _134  and  _137
REMARK   65  A    between atoms: _137  and  _138
REMARK   66  A    between atoms: _141  and  _143
REMARK   67  A    between atoms: _143  and  _144
REMARK   68  A    between atoms: _143  and  _146
REMARK   69  A    between atoms: _146  and  _147
REMARK   70  A    between atoms: _149  and  _151
REMARK   71  A    between atoms: _151  and  _152
REMARK   72  A    between atoms: _151  and  _154
REMARK   73  A    between atoms: _154  and  _155
REMARK   74  A    between atoms: _158  and  _160
REMARK   75  A    between atoms: _160  and  _161
REMARK   76  A    between atoms: _160  and  _163
REMARK   77  A    between atoms: _166  and  _168
REMARK   78  A    between atoms: _168  and  _169
REMARK   79  A    between atoms: _172  and  _174
REMARK   80  A    between atoms: _174  and  _175
REMARK   81  A    between atoms: _174  and  _177
REMARK   82  A    between atoms: _177  and  _178
REMARK   83  A    between atoms: _180  and  _182
REMARK   84  A    between atoms: _182  and  _183
REMARK   85  A    between atoms: _182  and  _185
REMARK   86  A    between atoms: _185  and  _186
REMARK   87  A    between atoms: _189  and  _191
REMARK   88  A    between atoms: _191  and  _192
REMARK   89  A    between atoms: _191  and  _194
REMARK   90  A    between atoms: _194  and  _195
REMARK   91  A    between atoms: _198  and  _200
REMARK   92  A    between atoms: _200  and  _201
REMARK   93  A    between atoms: _200  and  _203
REMARK   94  A    between atoms: _203  and  _204
REMARK   95  A    between atoms: _209  and  _210
REMARK   96  A    between atoms: _212  and  _214
REMARK   97  A    between atoms: _214  and  _215
REMARK   98  A    between atoms: _214  and  _217
REMARK   99  A    between atoms: _220  and  _222
REMARK  100  A    between atoms: _222  and  _223
REMARK  101  A    between atoms: _222  and  _225
REMARK  102  A    between atoms: _225  and  _226
REMARK  103  A    between atoms: _232  and  _234
REMARK  104  A    between atoms: _234  and  _235
REMARK  105  A    between atoms: _234  and  _237
REMARK  106  A    between atoms: _239  and  _241
REMARK  107  A    between atoms: _241  and  _242
REMARK  108  A    between atoms: _241  and  _244
REMARK  109  A    between atoms: _246  and  _248
REMARK  110  A    between atoms: _248  and  _249
REMARK  111  A    between atoms: _251  and  _253
REMARK  112  A    between atoms: _253  and  _254
REMARK  113  A    between atoms: _253  and  _256
REMARK  114  A    between atoms: _256  and  _257
REMARK  115  A    between atoms: _259  and  _261
REMARK  116  A    between atoms: _261  and  _262
REMARK  117  A    between atoms: _261  and  _264
REMARK  118  A    between atoms: _264  and  _265
REMARK  119  A    between atoms: _271  and  _273
REMARK  120  A    between atoms: _273  and  _274
REMARK  121  A    between atoms: _273  and  _276
REMARK  122  A    between atoms: _276  and  _277
REMARK  123  A    between atoms: _281  and  _282
REMARK  124  A    between atoms: _287  and  _289
REMARK  125  A    between atoms: _289  and  _290
REMARK  126  A    between atoms: _289  and  _292
REMARK  127  A    between atoms: _295  and  _297
REMARK  128  A    between atoms: _297  and  _298
REMARK  129  A    between atoms: _297  and  _300
REMARK  130  A    between atoms: _300  and  _301
REMARK  131  A    between atoms: _303  and  _305
REMARK  132  A    between atoms: _305  and  _306
REMARK  133  A    between atoms: _309  and  _311
REMARK  134  A    between atoms: _311  and  _312
REMARK  135  A    between atoms: _311  and  _314
REMARK  136  A    between atoms: _317  and  _319
REMARK  137  A    between atoms: _319  and  _320
REMARK  138  A    between atoms: _319  and  _322
REMARK  139  A    between atoms: _322  and  _323
REMARK  140  A    between atoms: _325  and  _327
REMARK  141  A    between atoms: _327  and  _328
REMARK  142  A    between atoms: _327  and  _330
REMARK  143  A    between atoms: _330  and  _331
REMARK  144  A    between atoms: _333  and  _335
REMARK  145  A    between atoms: _335  and  _336
REMARK  146  A    between atoms: _335  and  _338
REMARK  147  A    between atoms: _338  and  _339
REMARK  148  A    between atoms: _344  and  _345
REMARK  149  A    between atoms: _348  and  _349
REMARK  150  A    between atoms: _354  and  _356
REMARK  151  A    between atoms: _356  and  _357
REMARK  152  A    between atoms: _356  and  _359
REMARK  153  A    between atoms: _362  and  _364
REMARK  154  A    between atoms: _364  and  _365
REMARK  155  A    between atoms: _364  and  _367
REMARK  156  A    between atoms: _367  and  _368
REMARK  157  A    between atoms: _370  and  _372
REMARK  158  A    between atoms: _372  and  _373
REMARK  159  A    between atoms: _372  and  _375
REMARK  160  A    between atoms: _375  and  _376
REMARK  161  A    between atoms: _382  and  _384
REMARK  162  A    between atoms: _384  and  _385
REMARK  163  A    between atoms: _384  and  _387
REMARK  164  A    between atoms: _387  and  _388
REMARK  165  A    between atoms: _391  and  _393
REMARK  166  A    between atoms: _393  and  _394
REMARK  167  A    between atoms: _393  and  _396
REMARK  168  A    between atoms: _396  and  _397
REMARK  169  A    between atoms: _397  and  _398
REMARK  170  A    between atoms: _398  and  _399
REMARK  171  A    between atoms: _399  and  _400
REMARK  172  A    between atoms: _404  and  _406
REMARK  173  A    between atoms: _406  and  _407
REMARK  174  A    between atoms: _406  and  _409
REMARK  175  A    between atoms: _409  and  _410
REMARK  176  A    between atoms: _415  and  _416
REMARK  177  A    between atoms: _418  and  _420
REMARK  178  A    between atoms: _420  and  _421
REMARK  179  A    between atoms: _420  and  _423
REMARK  180  A    between atoms: _425  and  _427
REMARK  181  A    between atoms: _427  and  _428
REMARK  182  A    between atoms: _427  and  _430
REMARK  183  A    between atoms: _430  and  _431
REMARK  184  A    between atoms: _434  and  _436
REMARK  185  A    between atoms: _436  and  _437
REMARK  186  A    between atoms: _436  and  _439
REMARK  187  A    between atoms: _439  and  _440
REMARK  188  A    between atoms: _446  and  _448
REMARK  189  A    between atoms: _448  and  _449
REMARK  190  A    between atoms: _448  and  _451
REMARK  191  A    between atoms: _454  and  _456
REMARK  192  A    between atoms: _456  and  _457
REMARK  193  A    between atoms: _456  and  _459
REMARK  194  A    between atoms: _459  and  _460
REMARK  195  A    between atoms: _463  and  _465
REMARK  196  A    between atoms: _465  and  _466
REMARK  197  A    between atoms: _465  and  _468
REMARK  198  A    between atoms: _468  and  _469
REMARK  199  A    between atoms: _471  and  _473
REMARK  200  A    between atoms: _473  and  _474
REMARK  201  A    between atoms: _473  and  _476
REMARK  202  A    between atoms: _476  and  _477
REMARK  203  A    between atoms: _480  and  _482
REMARK  204  A    between atoms: _482  and  _483
REMARK  205  A    between atoms: _486  and  _488
REMARK  206  A    between atoms: _488  and  _489
REMARK  207  A    between atoms: _488  and  _491
REMARK  208  A    between atoms: _491  and  _492
REMARK  209  A    between atoms: _495  and  _497
REMARK  210  A    between atoms: _497  and  _498
REMARK  211  A    between atoms: _497  and  _500
REMARK  212  A    between atoms: _500  and  _501
REMARK  213  A    between atoms: _501  and  _502
REMARK                            x       y       z     vdW  Elec       q    Type
REMARK                         _______ _______ _______ _____ _____    ______ ____
ROOT
ATOM      1  O   HOH     1     -12.581 -21.429   5.839  0.00  0.00    +0.000 OA
ENDROOT
TORSDOF 0
REMARK  Name = ../refined-set-2016/4ql1/4ql1_pocket.pdb
REMARK  213 active torsions:
REMARK  status: ('A' for Active; 'I' for Inactive)
REMARK    1  A    between atoms: _1  and  _3
REMARK    2  A    between atoms: _3  and  _4
REMARK    3  A    between atoms: _3  and  _6
REMARK    4  A    between atoms: _6  and  _7
REMARK    5  A    between atoms: _7  and  _8
REMARK    6  A    between atoms: _8  and  _9
REMARK    7  A    between atoms: _9  and  _10
REMARK    8  A    between atoms: _14  and  _16
REMARK    9  A    between atoms: _16  and  _17
REMARK   10  A    between atoms: _20  and  _22
REMARK   11  A    between atoms: _22  and  _23
REMARK   12  A    between atoms: _22  and  _25
REMARK   13  A    between atoms: _28  and  _30
REMARK   14  A    between atoms: _30  and  _31
REMARK   15  A    between atoms: _30  and  _33
REMARK   16  A    between atoms: _33  and  _34
REMARK   17  A    between atoms: _36  and  _38
REMARK   18  A    between atoms: _38  and  _39
REMARK   19  A    between atoms: _38  and  _41
REMARK   20  A    between atoms: _41  and  _42
REMARK   21  A    between atoms: _44  and  _46
REMARK   22  A    between atoms: _46  and  _47
REMARK   23  A    between atoms: _46  and  _49
REMARK   24  A    between atoms: _52  and  _54
REMARK   25  A    between atoms: _54  and  _55
REMARK   26  A    between atoms: _54  and  _57
REMARK   27  A    between atoms: _57  and  _58
REMARK   28  A    between atoms: _58  and  _59
REMARK   29  A    between atoms: _59  and  _60
REMARK   30  A    between atoms: _60  and  _61
REMARK   31  A    between atoms: _65  and  _67
REMARK   32  A    between atoms: _67  and  _68
REMARK   33  A    between atoms: _67  and  _70
REMARK   34  A    between atoms: _70  and  _71
REMARK   35  A    between atoms: _73  and  _75
REMARK   36  A    between atoms: _75  and  _76
REMARK   37  A    between atoms: _75  and  _78
REMARK   38  A    between atoms: _78  and  _79
REMARK   39  A    between atoms: _81  and  _83
REMARK   40  A    between atoms: _83  and  _84
REMARK   41  A    between atoms: _87  and  _89
REMARK   42  A    between atoms: _89  and  _90
REMARK   43  A    between atoms: _89  and  _92
REMARK   44  A    between atoms: _92  and  _93
REMARK   45  A    between atoms: _96  and  _98
REMARK   46  A    between atoms: _98  and  _99
REMARK   47  A    between atoms: _98  and  _101
REMARK   48  A    between atoms: _101  and  _102
REMARK   49  A    between atoms: _102  and  _103
REMARK   50  A    between atoms: _103  and  _104
REMARK   51  A    between atoms: _104  and  _105
REMARK   52  A    between atoms: _109  and  _111
REMARK   53  A    between atoms: _111  and  _112
REMARK   54  A    between atoms: _111  and  _114
REMARK   55  A    between atoms: _114  and  _115
REMARK   56  A    between atoms: _118  and  _120
REMARK   57  A    between atoms: _120  and  _121
REMARK   58  A    between atoms: _120  and  _123
REMARK   59  A    between atoms: _123  and  _124
REMARK   60  A    between atoms: _127  and  _129
REMARK   61  A    between atoms: _129  and  _130
REMARK   62  A    between atoms: _132  and  _134
REMARK   63  A    between atoms: _134  and  _135
REMARK   64  A    between atoms: _134  and  _137
REMARK   65  A    between atoms: _137  and  _138
REMARK   66  A    between atoms: _141  and  _143
REMARK   67  A    between atoms: _143  and  _144
REMARK   68  A    between atoms: _143  and  _146
REMARK   69  A    between atoms: _146  and  _147
REMARK   70  A    between atoms: _149  and  _151
REMARK   71  A    between atoms: _151  and  _152
REMARK   72  A    between atoms: _151  and  _154
REMARK   73  A    between atoms: _154  and  _155
REMARK   74  A    between atoms: _158  and  _160
REMARK   75  A    between atoms: _160  and  _161
REMARK   76  A    between atoms: _160  and  _163
REMARK   77  A    between atoms: _166  and  _168
REMARK   78  A    between atoms: _168  and  _169
REMARK   79  A    between atoms: _172  and  _174
REMARK   80  A    between atoms: _174  and  _175
REMARK   81  A    between atoms: _174  and  _177
REMARK   82  A    between atoms: _177  and  _178
REMARK   83  A    between atoms: _180  and  _182
REMARK   84  A    between atoms: _182  and  _183
REMARK   85  A    between atoms: _182  and  _185
REMARK   86  A    between atoms: _185  and  _186
REMARK   87  A    between atoms: _189  and  _191
REMARK   88  A    between atoms: _191  and  _192
REMARK   89  A    between atoms: _191  and  _194
REMARK   90  A    between atoms: _194  and  _195
REMARK   91  A    between atoms: _198  and  _200
REMARK   92  A    between atoms: _200  and  _201
REMARK   93  A    between atoms: _200  and  _203
REMARK   94  A    between atoms: _203  and  _204
REMARK   95  A    between atoms: _209  and  _210
REMARK   96  A    between atoms: _212  and  _214
REMARK   97  A    between atoms: _214  and  _215
REMARK   98  A    between atoms: _214  and  _217
REMARK   99  A    between atoms: _220  and  _222
REMARK  100  A    between atoms: _222  and  _223
REMARK  101  A    between atoms: _222  and  _225
REMARK  102  A    between atoms: _225  and  _226
REMARK  103  A    between atoms: _232  and  _234
REMARK  104  A    between atoms: _234  and  _235
REMARK  105  A    between atoms: _234  and  _237
REMARK  106  A    between atoms: _239  and  _241
REMARK  107  A    between atoms: _241  and  _242
REMARK  108  A    between atoms: _241  and  _244
REMARK  109  A    between atoms: _246  and  _248
REMARK  110  A    between atoms: _248  and  _249
REMARK  111  A    between atoms: _251  and  _253
REMARK  112  A    between atoms: _253  and  _254
REMARK  113  A    between atoms: _253  and  _256
REMARK  114  A    between atoms: _256  and  _257
REMARK  115  A    between atoms: _259  and  _261
REMARK  116  A    between atoms: _261  and  _262
REMARK  117  A    between atoms: _261  and  _264
REMARK  118  A    between atoms: _264  and  _265
REMARK  119  A    between atoms: _271  and  _273
REMARK  120  A    between atoms: _273  and  _274
REMARK  121  A    between atoms: _273  and  _276
REMARK  122  A    between atoms: _276  and  _277
REMARK  123  A    between atoms: _281  and  _282
REMARK  124  A    between atoms: _287  and  _289
REMARK  125  A    between atoms: _289  and  _290
REMARK  126  A    between atoms: _289  and  _292
REMARK  127  A    between atoms: _295  and  _297
REMARK  128  A    between atoms: _297  and  _298
REMARK  129  A    between atoms: _297  and  _300
REMARK  130  A    between atoms: _300  and  _301
REMARK  131  A    between atoms: _303  and  _305
REMARK  132  A    between atoms: _305  and  _306
REMARK  133  A    between atoms: _309  and  _311
REMARK  134  A    between atoms: _311  and  _312
REMARK  135  A    between atoms: _311  and  _314
REMARK  136  A    between atoms: _317  and  _319
REMARK  137  A    between atoms: _319  and  _320
REMARK  138  A    between atoms: _319  and  _322
REMARK  139  A    between atoms: _322  and  _323
REMARK  140  A    between atoms: _325  and  _327
REMARK  141  A    between atoms: _327  and  _328
REMARK  142  A    between atoms: _327  and  _330
REMARK  143  A    between atoms: _330  and  _331
REMARK  144  A    between atoms: _333  and  _335
REMARK  145  A    between atoms: _335  and  _336
REMARK  146  A    between atoms: _335  and  _338
REMARK  147  A    between atoms: _338  and  _339
REMARK  148  A    between atoms: _344  and  _345
REMARK  149  A    between atoms: _348  and  _349
REMARK  150  A    between atoms: _354  and  _356
REMARK  151  A    between atoms: _356  and  _357
REMARK  152  A    between atoms: _356  and  _359
REMARK  153  A    between atoms: _362  and  _364
REMARK  154  A    between atoms: _364  and  _365
REMARK  155  A    between atoms: _364  and  _367
REMARK  156  A    between atoms: _367  and  _368
REMARK  157  A    between atoms: _370  and  _372
REMARK  158  A    between atoms: _372  and  _373
REMARK  159  A    between atoms: _372  and  _375
REMARK  160  A    between atoms: _375  and  _376
REMARK  161  A    between atoms: _382  and  _384
REMARK  162  A    between atoms: _384  and  _385
REMARK  163  A    between atoms: _384  and  _387
REMARK  164  A    between atoms: _387  and  _388
REMARK  165  A    between atoms: _391  and  _393
REMARK  166  A    between atoms: _393  and  _394
REMARK  167  A    between atoms: _393  and  _396
REMARK  168  A    between atoms: _396  and  _397
REMARK  169  A    between atoms: _397  and  _398
REMARK  170  A    between atoms: _398  and  _399
REMARK  171  A    between atoms: _399  and  _400
REMARK  172  A    between atoms: _404  and  _406
REMARK  173  A    between atoms: _406  and  _407
REMARK  174  A    between atoms: _406  and  _409
REMARK  175  A    between atoms: _409  and  _410
REMARK  176  A    between atoms: _415  and  _416
REMARK  177  A    between atoms: _418  and  _420
REMARK  178  A    between atoms: _420  and  _421
REMARK  179  A    between atoms: _420  and  _423
REMARK  180  A    between atoms: _425  and  _427
REMARK  181  A    between atoms: _427  and  _428
REMARK  182  A    between atoms: _427  and  _430
REMARK  183  A    between atoms: _430  and  _431
REMARK  184  A    between atoms: _434  and  _436
REMARK  185  A    between atoms: _436  and  _437
REMARK  186  A    between atoms: _436  and  _439
REMARK  187  A    between atoms: _439  and  _440
REMARK  188  A    between atoms: _446  and  _448
REMARK  189  A    between atoms: _448  and  _449
REMARK  190  A    between atoms: _448  and  _451
REMARK  191  A    between atoms: _454  and  _456
REMARK  192  A    between atoms: _456  and  _457
REMARK  193  A    between atoms: _456  and  _459
REMARK  194  A    between atoms: _459  and  _460
REMARK  195  A    between atoms: _463  and  _465
REMARK  196  A    between atoms: _465  and  _466
REMARK  197  A    between atoms: _465  and  _468
REMARK  198  A    between atoms: _468  and  _469
REMARK  199  A    between atoms: _471  and  _473
REMARK  200  A    between atoms: _473  and  _474
REMARK  201  A    between atoms: _473  and  _476
REMARK  202  A    between atoms: _476  and  _477
REMARK  203  A    between atoms: _480  and  _482
REMARK  204  A    between atoms: _482  and  _483
REMARK  205  A    between atoms: _486  and  _488
REMARK  206  A    between atoms: _488  and  _489
REMARK  207  A    between atoms: _488  and  _491
REMARK  208  A    between atoms: _491  and  _492
REMARK  209  A    between atoms: _495  and  _497
REMARK  210  A    between atoms: _497  and  _498
REMARK  211  A    between atoms: _497  and  _500
REMARK  212  A    between atoms: _500  and  _501
REMARK  213  A    between atoms: _501  and  _502
REMARK                            x       y       z     vdW  Elec       q    Type
REMARK                         _______ _______ _______ _____ _____    ______ ____
ROOT
ATOM      1  O   HOH     1      -9.666 -24.605  -3.642  0.00  0.00    +0.000 OA
ENDROOT
TORSDOF 0
REMARK  Name = ../refined-set-2016/4ql1/4ql1_pocket.pdb
REMARK  213 active torsions:
REMARK  status: ('A' for Active; 'I' for Inactive)
REMARK    1  A    between atoms: _1  and  _3
REMARK    2  A    between atoms: _3  and  _4
REMARK    3  A    between atoms: _3  and  _6
REMARK    4  A    between atoms: _6  and  _7
REMARK    5  A    between atoms: _7  and  _8
REMARK    6  A    between atoms: _8  and  _9
REMARK    7  A    between atoms: _9  and  _10
REMARK    8  A    between atoms: _14  and  _16
REMARK    9  A    between atoms: _16  and  _17
REMARK   10  A    between atoms: _20  and  _22
REMARK   11  A    between atoms: _22  and  _23
REMARK   12  A    between atoms: _22  and  _25
REMARK   13  A    between atoms: _28  and  _30
REMARK   14  A    between atoms: _30  and  _31
REMARK   15  A    between atoms: _30  and  _33
REMARK   16  A    between atoms: _33  and  _34
REMARK   17  A    between atoms: _36  and  _38
REMARK   18  A    between atoms: _38  and  _39
REMARK   19  A    between atoms: _38  and  _41
REMARK   20  A    between atoms: _41  and  _42
REMARK   21  A    between atoms: _44  and  _46
REMARK   22  A    between atoms: _46  and  _47
REMARK   23  A    between atoms: _46  and  _49
REMARK   24  A    between atoms: _52  and  _54
REMARK   25  A    between atoms: _54  and  _55
REMARK   26  A    between atoms: _54  and  _57
REMARK   27  A    between atoms: _57  and  _58
REMARK   28  A    between atoms: _58  and  _59
REMARK   29  A    between atoms: _59  and  _60
REMARK   30  A    between atoms: _60  and  _61
REMARK   31  A    between atoms: _65  and  _67
REMARK   32  A    between atoms: _67  and  _68
REMARK   33  A    between atoms: _67  and  _70
REMARK   34  A    between atoms: _70  and  _71
REMARK   35  A    between atoms: _73  and  _75
REMARK   36  A    between atoms: _75  and  _76
REMARK   37  A    between atoms: _75  and  _78
REMARK   38  A    between atoms: _78  and  _79
REMARK   39  A    between atoms: _81  and  _83
REMARK   40  A    between atoms: _83  and  _84
REMARK   41  A    between atoms: _87  and  _89
REMARK   42  A    between atoms: _89  and  _90
REMARK   43  A    between atoms: _89  and  _92
REMARK   44  A    between atoms: _92  and  _93
REMARK   45  A    between atoms: _96  and  _98
REMARK   46  A    between atoms: _98  and  _99
REMARK   47  A    between atoms: _98  and  _101
REMARK   48  A    between atoms: _101  and  _102
REMARK   49  A    between atoms: _102  and  _103
REMARK   50  A    between atoms: _103  and  _104
REMARK   51  A    between atoms: _104  and  _105
REMARK   52  A    between atoms: _109  and  _111
REMARK   53  A    between atoms: _111  and  _112
REMARK   54  A    between atoms: _111  and  _114
REMARK   55  A    between atoms: _114  and  _115
REMARK   56  A    between atoms: _118  and  _120
REMARK   57  A    between atoms: _120  and  _121
REMARK   58  A    between atoms: _120  and  _123
REMARK   59  A    between atoms: _123  and  _124
REMARK   60  A    between atoms: _127  and  _129
REMARK   61  A    between atoms: _129  and  _130
REMARK   62  A    between atoms: _132  and  _134
REMARK   63  A    between atoms: _134  and  _135
REMARK   64  A    between atoms: _134  and  _137
REMARK   65  A    between atoms: _137  and  _138
REMARK   66  A    between atoms: _141  and  _143
REMARK   67  A    between atoms: _143  and  _144
REMARK   68  A    between atoms: _143  and  _146
REMARK   69  A    between atoms: _146  and  _147
REMARK   70  A    between atoms: _149  and  _151
REMARK   71  A    between atoms: _151  and  _152
REMARK   72  A    between atoms: _151  and  _154
REMARK   73  A    between atoms: _154  and  _155
REMARK   74  A    between atoms: _158  and  _160
REMARK   75  A    between atoms: _160  and  _161
REMARK   76  A    between atoms: _160  and  _163
REMARK   77  A    between atoms: _166  and  _168
REMARK   78  A    between atoms: _168  and  _169
REMARK   79  A    between atoms: _172  and  _174
REMARK   80  A    between atoms: _174  and  _175
REMARK   81  A    between atoms: _174  and  _177
REMARK   82  A    between atoms: _177  and  _178
REMARK   83  A    between atoms: _180  and  _182
REMARK   84  A    between atoms: _182  and  _183
REMARK   85  A    between atoms: _182  and  _185
REMARK   86  A    between atoms: _185  and  _186
REMARK   87  A    between atoms: _189  and  _191
REMARK   88  A    between atoms: _191  and  _192
REMARK   89  A    between atoms: _191  and  _194
REMARK   90  A    between atoms: _194  and  _195
REMARK   91  A    between atoms: _198  and  _200
REMARK   92  A    between atoms: _200  and  _201
REMARK   93  A    between atoms: _200  and  _203
REMARK   94  A    between atoms: _203  and  _204
REMARK   95  A    between atoms: _209  and  _210
REMARK   96  A    between atoms: _212  and  _214
REMARK   97  A    between atoms: _214  and  _215
REMARK   98  A    between atoms: _214  and  _217
REMARK   99  A    between atoms: _220  and  _222
REMARK  100  A    between atoms: _222  and  _223
REMARK  101  A    between atoms: _222  and  _225
REMARK  102  A    between atoms: _225  and  _226
REMARK  103  A    between atoms: _232  and  _234
REMARK  104  A    between atoms: _234  and  _235
REMARK  105  A    between atoms: _234  and  _237
REMARK  106  A    between atoms: _239  and  _241
REMARK  107  A    between atoms: _241  and  _242
REMARK  108  A    between atoms: _241  and  _244
REMARK  109  A    between atoms: _246  and  _248
REMARK  110  A    between atoms: _248  and  _249
REMARK  111  A    between atoms: _251  and  _253
REMARK  112  A    between atoms: _253  and  _254
REMARK  113  A    between atoms: _253  and  _256
REMARK  114  A    between atoms: _256  and  _257
REMARK  115  A    between atoms: _259  and  _261
REMARK  116  A    between atoms: _261  and  _262
REMARK  117  A    between atoms: _261  and  _264
REMARK  118  A    between atoms: _264  and  _265
REMARK  119  A    between atoms: _271  and  _273
REMARK  120  A    between atoms: _273  and  _274
REMARK  121  A    between atoms: _273  and  _276
REMARK  122  A    between atoms: _276  and  _277
REMARK  123  A    between atoms: _281  and  _282
REMARK  124  A    between atoms: _287  and  _289
REMARK  125  A    between atoms: _289  and  _290
REMARK  126  A    between atoms: _289  and  _292
REMARK  127  A    between atoms: _295  and  _297
REMARK  128  A    between atoms: _297  and  _298
REMARK  129  A    between atoms: _297  and  _300
REMARK  130  A    between atoms: _300  and  _301
REMARK  131  A    between atoms: _303  and  _305
REMARK  132  A    between atoms: _305  and  _306
REMARK  133  A    between atoms: _309  and  _311
REMARK  134  A    between atoms: _311  and  _312
REMARK  135  A    between atoms: _311  and  _314
REMARK  136  A    between atoms: _317  and  _319
REMARK  137  A    between atoms: _319  and  _320
REMARK  138  A    between atoms: _319  and  _322
REMARK  139  A    between atoms: _322  and  _323
REMARK  140  A    between atoms: _325  and  _327
REMARK  141  A    between atoms: _327  and  _328
REMARK  142  A    between atoms: _327  and  _330
REMARK  143  A    between atoms: _330  and  _331
REMARK  144  A    between atoms: _333  and  _335
REMARK  145  A    between atoms: _335  and  _336
REMARK  146  A    between atoms: _335  and  _338
REMARK  147  A    between atoms: _338  and  _339
REMARK  148  A    between atoms: _344  and  _345
REMARK  149  A    between atoms: _348  and  _349
REMARK  150  A    between atoms: _354  and  _356
REMARK  151  A    between atoms: _356  and  _357
REMARK  152  A    between atoms: _356  and  _359
REMARK  153  A    between atoms: _362  and  _364
REMARK  154  A    between atoms: _364  and  _365
REMARK  155  A    between atoms: _364  and  _367
REMARK  156  A    between atoms: _367  and  _368
REMARK  157  A    between atoms: _370  and  _372
REMARK  158  A    between atoms: _372  and  _373
REMARK  159  A    between atoms: _372  and  _375
REMARK  160  A    between atoms: _375  and  _376
REMARK  161  A    between atoms: _382  and  _384
REMARK  162  A    between atoms: _384  and  _385
REMARK  163  A    between atoms: _384  and  _387
REMARK  164  A    between atoms: _387  and  _388
REMARK  165  A    between atoms: _391  and  _393
REMARK  166  A    between atoms: _393  and  _394
REMARK  167  A    between atoms: _393  and  _396
REMARK  168  A    between atoms: _396  and  _397
REMARK  169  A    between atoms: _397  and  _398
REMARK  170  A    between atoms: _398  and  _399
REMARK  171  A    between atoms: _399  and  _400
REMARK  172  A    between atoms: _404  and  _406
REMARK  173  A    between atoms: _406  and  _407
REMARK  174  A    between atoms: _406  and  _409
REMARK  175  A    between atoms: _409  and  _410
REMARK  176  A    between atoms: _415  and  _416
REMARK  177  A    between atoms: _418  and  _420
REMARK  178  A    between atoms: _420  and  _421
REMARK  179  A    between atoms: _420  and  _423
REMARK  180  A    between atoms: _425  and  _427
REMARK  181  A    between atoms: _427  and  _428
REMARK  182  A    between atoms: _427  and  _430
REMARK  183  A    between atoms: _430  and  _431
REMARK  184  A    between atoms: _434  and  _436
REMARK  185  A    between atoms: _436  and  _437
REMARK  186  A    between atoms: _436  and  _439
REMARK  187  A    between atoms: _439  and  _440
REMARK  188  A    between atoms: _446  and  _448
REMARK  189  A    between atoms: _448  and  _449
REMARK  190  A    between atoms: _448  and  _451
REMARK  191  A    between atoms: _454  and  _456
REMARK  192  A    between atoms: _456  and  _457
REMARK  193  A    between atoms: _456  and  _459
REMARK  194  A    between atoms: _459  and  _460
REMARK  195  A    between atoms: _463  and  _465
REMARK  196  A    between atoms: _465  and  _466
REMARK  197  A    between atoms: _465  and  _468
REMARK  198  A    between atoms: _468  and  _469
REMARK  199  A    between atoms: _471  and  _473
REMARK  200  A    between atoms: _473  and  _474
REMARK  201  A    between atoms: _473  and  _476
REMARK  202  A    between atoms: _476  and  _477
REMARK  203  A    between atoms: _480  and  _482
REMARK  204  A    between atoms: _482  and  _483
REMARK  205  A    between atoms: _486  and  _488
REMARK  206  A    between atoms: _488  and  _489
REMARK  207  A    between atoms: _488  and  _491
REMARK  208  A    between atoms: _491  and  _492
REMARK  209  A    between atoms: _495  and  _497
REMARK  210  A    between atoms: _497  and  _498
REMARK  211  A    between atoms: _497  and  _500
REMARK  212  A    between atoms: _500  and  _501
REMARK  213  A    between atoms: _501  and  _502
REMARK                            x       y       z     vdW  Elec       q    Type
REMARK                         _______ _______ _______ _____ _____    ______ ____
ROOT
ATOM      1  O   HOH     1     -19.127 -29.666  -7.758  0.00  0.00    +0.000 OA
ENDROOT
TORSDOF 0
REMARK  Name = ../refined-set-2016/4ql1/4ql1_pocket.pdb
REMARK  213 active torsions:
REMARK  status: ('A' for Active; 'I' for Inactive)
REMARK    1  A    between atoms: _1  and  _3
REMARK    2  A    between atoms: _3  and  _4
REMARK    3  A    between atoms: _3  and  _6
REMARK    4  A    between atoms: _6  and  _7
REMARK    5  A    between atoms: _7  and  _8
REMARK    6  A    between atoms: _8  and  _9
REMARK    7  A    between atoms: _9  and  _10
REMARK    8  A    between atoms: _14  and  _16
REMARK    9  A    between atoms: _16  and  _17
REMARK   10  A    between atoms: _20  and  _22
REMARK   11  A    between atoms: _22  and  _23
REMARK   12  A    between atoms: _22  and  _25
REMARK   13  A    between atoms: _28  and  _30
REMARK   14  A    between atoms: _30  and  _31
REMARK   15  A    between atoms: _30  and  _33
REMARK   16  A    between atoms: _33  and  _34
REMARK   17  A    between atoms: _36  and  _38
REMARK   18  A    between atoms: _38  and  _39
REMARK   19  A    between atoms: _38  and  _41
REMARK   20  A    between atoms: _41  and  _42
REMARK   21  A    between atoms: _44  and  _46
REMARK   22  A    between atoms: _46  and  _47
REMARK   23  A    between atoms: _46  and  _49
REMARK   24  A    between atoms: _52  and  _54
REMARK   25  A    between atoms: _54  and  _55
REMARK   26  A    between atoms: _54  and  _57
REMARK   27  A    between atoms: _57  and  _58
REMARK   28  A    between atoms: _58  and  _59
REMARK   29  A    between atoms: _59  and  _60
REMARK   30  A    between atoms: _60  and  _61
REMARK   31  A    between atoms: _65  and  _67
REMARK   32  A    between atoms: _67  and  _68
REMARK   33  A    between atoms: _67  and  _70
REMARK   34  A    between atoms: _70  and  _71
REMARK   35  A    between atoms: _73  and  _75
REMARK   36  A    between atoms: _75  and  _76
REMARK   37  A    between atoms: _75  and  _78
REMARK   38  A    between atoms: _78  and  _79
REMARK   39  A    between atoms: _81  and  _83
REMARK   40  A    between atoms: _83  and  _84
REMARK   41  A    between atoms: _87  and  _89
REMARK   42  A    between atoms: _89  and  _90
REMARK   43  A    between atoms: _89  and  _92
REMARK   44  A    between atoms: _92  and  _93
REMARK   45  A    between atoms: _96  and  _98
REMARK   46  A    between atoms: _98  and  _99
REMARK   47  A    between atoms: _98  and  _101
REMARK   48  A    between atoms: _101  and  _102
REMARK   49  A    between atoms: _102  and  _103
REMARK   50  A    between atoms: _103  and  _104
REMARK   51  A    between atoms: _104  and  _105
REMARK   52  A    between atoms: _109  and  _111
REMARK   53  A    between atoms: _111  and  _112
REMARK   54  A    between atoms: _111  and  _114
REMARK   55  A    between atoms: _114  and  _115
REMARK   56  A    between atoms: _118  and  _120
REMARK   57  A    between atoms: _120  and  _121
REMARK   58  A    between atoms: _120  and  _123
REMARK   59  A    between atoms: _123  and  _124
REMARK   60  A    between atoms: _127  and  _129
REMARK   61  A    between atoms: _129  and  _130
REMARK   62  A    between atoms: _132  and  _134
REMARK   63  A    between atoms: _134  and  _135
REMARK   64  A    between atoms: _134  and  _137
REMARK   65  A    between atoms: _137  and  _138
REMARK   66  A    between atoms: _141  and  _143
REMARK   67  A    between atoms: _143  and  _144
REMARK   68  A    between atoms: _143  and  _146
REMARK   69  A    between atoms: _146  and  _147
REMARK   70  A    between atoms: _149  and  _151
REMARK   71  A    between atoms: _151  and  _152
REMARK   72  A    between atoms: _151  and  _154
REMARK   73  A    between atoms: _154  and  _155
REMARK   74  A    between atoms: _158  and  _160
REMARK   75  A    between atoms: _160  and  _161
REMARK   76  A    between atoms: _160  and  _163
REMARK   77  A    between atoms: _166  and  _168
REMARK   78  A    between atoms: _168  and  _169
REMARK   79  A    between atoms: _172  and  _174
REMARK   80  A    between atoms: _174  and  _175
REMARK   81  A    between atoms: _174  and  _177
REMARK   82  A    between atoms: _177  and  _178
REMARK   83  A    between atoms: _180  and  _182
REMARK   84  A    between atoms: _182  and  _183
REMARK   85  A    between atoms: _182  and  _185
REMARK   86  A    between atoms: _185  and  _186
REMARK   87  A    between atoms: _189  and  _191
REMARK   88  A    between atoms: _191  and  _192
REMARK   89  A    between atoms: _191  and  _194
REMARK   90  A    between atoms: _194  and  _195
REMARK   91  A    between atoms: _198  and  _200
REMARK   92  A    between atoms: _200  and  _201
REMARK   93  A    between atoms: _200  and  _203
REMARK   94  A    between atoms: _203  and  _204
REMARK   95  A    between atoms: _209  and  _210
REMARK   96  A    between atoms: _212  and  _214
REMARK   97  A    between atoms: _214  and  _215
REMARK   98  A    between atoms: _214  and  _217
REMARK   99  A    between atoms: _220  and  _222
REMARK  100  A    between atoms: _222  and  _223
REMARK  101  A    between atoms: _222  and  _225
REMARK  102  A    between atoms: _225  and  _226
REMARK  103  A    between atoms: _232  and  _234
REMARK  104  A    between atoms: _234  and  _235
REMARK  105  A    between atoms: _234  and  _237
REMARK  106  A    between atoms: _239  and  _241
REMARK  107  A    between atoms: _241  and  _242
REMARK  108  A    between atoms: _241  and  _244
REMARK  109  A    between atoms: _246  and  _248
REMARK  110  A    between atoms: _248  and  _249
REMARK  111  A    between atoms: _251  and  _253
REMARK  112  A    between atoms: _253  and  _254
REMARK  113  A    between atoms: _253  and  _256
REMARK  114  A    between atoms: _256  and  _257
REMARK  115  A    between atoms: _259  and  _261
REMARK  116  A    between atoms: _261  and  _262
REMARK  117  A    between atoms: _261  and  _264
REMARK  118  A    between atoms: _264  and  _265
REMARK  119  A    between atoms: _271  and  _273
REMARK  120  A    between atoms: _273  and  _274
REMARK  121  A    between atoms: _273  and  _276
REMARK  122  A    between atoms: _276  and  _277
REMARK  123  A    between atoms: _281  and  _282
REMARK  124  A    between atoms: _287  and  _289
REMARK  125  A    between atoms: _289  and  _290
REMARK  126  A    between atoms: _289  and  _292
REMARK  127  A    between atoms: _295  and  _297
REMARK  128  A    between atoms: _297  and  _298
REMARK  129  A    between atoms: _297  and  _300
REMARK  130  A    between atoms: _300  and  _301
REMARK  131  A    between atoms: _303  and  _305
REMARK  132  A    between atoms: _305  and  _306
REMARK  133  A    between atoms: _309  and  _311
REMARK  134  A    between atoms: _311  and  _312
REMARK  135  A    between atoms: _311  and  _314
REMARK  136  A    between atoms: _317  and  _319
REMARK  137  A    between atoms: _319  and  _320
REMARK  138  A    between atoms: _319  and  _322
REMARK  139  A    between atoms: _322  and  _323
REMARK  140  A    between atoms: _325  and  _327
REMARK  141  A    between atoms: _327  and  _328
REMARK  142  A    between atoms: _327  and  _330
REMARK  143  A    between atoms: _330  and  _331
REMARK  144  A    between atoms: _333  and  _335
REMARK  145  A    between atoms: _335  and  _336
REMARK  146  A    between atoms: _335  and  _338
REMARK  147  A    between atoms: _338  and  _339
REMARK  148  A    between atoms: _344  and  _345
REMARK  149  A    between atoms: _348  and  _349
REMARK  150  A    between atoms: _354  and  _356
REMARK  151  A    between atoms: _356  and  _357
REMARK  152  A    between atoms: _356  and  _359
REMARK  153  A    between atoms: _362  and  _364
REMARK  154  A    between atoms: _364  and  _365
REMARK  155  A    between atoms: _364  and  _367
REMARK  156  A    between atoms: _367  and  _368
REMARK  157  A    between atoms: _370  and  _372
REMARK  158  A    between atoms: _372  and  _373
REMARK  159  A    between atoms: _372  and  _375
REMARK  160  A    between atoms: _375  and  _376
REMARK  161  A    between atoms: _382  and  _384
REMARK  162  A    between atoms: _384  and  _385
REMARK  163  A    between atoms: _384  and  _387
REMARK  164  A    between atoms: _387  and  _388
REMARK  165  A    between atoms: _391  and  _393
REMARK  166  A    between atoms: _393  and  _394
REMARK  167  A    between atoms: _393  and  _396
REMARK  168  A    between atoms: _396  and  _397
REMARK  169  A    between atoms: _397  and  _398
REMARK  170  A    between atoms: _398  and  _399
REMARK  171  A    between atoms: _399  and  _400
REMARK  172  A    between atoms: _404  and  _406
REMARK  173  A    between atoms: _406  and  _407
REMARK  174  A    between atoms: _406  and  _409
REMARK  175  A    between atoms: _409  and  _410
REMARK  176  A    between atoms: _415  and  _416
REMARK  177  A    between atoms: _418  and  _420
REMARK  178  A    between atoms: _420  and  _421
REMARK  179  A    between atoms: _420  and  _423
REMARK  180  A    between atoms: _425  and  _427
REMARK  181  A    between atoms: _427  and  _428
REMARK  182  A    between atoms: _427  and  _430
REMARK  183  A    between atoms: _430  and  _431
REMARK  184  A    between atoms: _434  and  _436
REMARK  185  A    between atoms: _436  and  _437
REMARK  186  A    between atoms: _436  and  _439
REMARK  187  A    between atoms: _439  and  _440
REMARK  188  A    between atoms: _446  and  _448
REMARK  189  A    between atoms: _448  and  _449
REMARK  190  A    between atoms: _448  and  _451
REMARK  191  A    between atoms: _454  and  _456
REMARK  192  A    between atoms: _456  and  _457
REMARK  193  A    between atoms: _456  and  _459
REMARK  194  A    between atoms: _459  and  _460
REMARK  195  A    between atoms: _463  and  _465
REMARK  196  A    between atoms: _465  and  _466
REMARK  197  A    between atoms: _465  and  _468
REMARK  198  A    between atoms: _468  and  _469
REMARK  199  A    between atoms: _471  and  _473
REMARK  200  A    between atoms: _473  and  _474
REMARK  201  A    between atoms: _473  and  _476
REMARK  202  A    between atoms: _476  and  _477
REMARK  203  A    between atoms: _480  and  _482
REMARK  204  A    between atoms: _482  and  _483
REMARK  205  A    between atoms: _486  and  _488
REMARK  206  A    between atoms: _488  and  _489
REMARK  207  A    between atoms: _488  and  _491
REMARK  208  A    between atoms: _491  and  _492
REMARK  209  A    between atoms: _495  and  _497
REMARK  210  A    between atoms: _497  and  _498
REMARK  211  A    between atoms: _497  and  _500
REMARK  212  A    between atoms: _500  and  _501
REMARK  213  A    between atoms: _501  and  _502
REMARK                            x       y       z     vdW  Elec       q    Type
REMARK                         _______ _______ _______ _____ _____    ______ ____
ROOT
ATOM      1  O   HOH     1     -15.387 -21.369   5.180  0.00  0.00    +0.000 OA
ENDROOT
TORSDOF 0
REMARK  Name = ../refined-set-2016/4ql1/4ql1_pocket.pdb
REMARK  213 active torsions:
REMARK  status: ('A' for Active; 'I' for Inactive)
REMARK    1  A    between atoms: _1  and  _3
REMARK    2  A    between atoms: _3  and  _4
REMARK    3  A    between atoms: _3  and  _6
REMARK    4  A    between atoms: _6  and  _7
REMARK    5  A    between atoms: _7  and  _8
REMARK    6  A    between atoms: _8  and  _9
REMARK    7  A    between atoms: _9  and  _10
REMARK    8  A    between atoms: _14  and  _16
REMARK    9  A    between atoms: _16  and  _17
REMARK   10  A    between atoms: _20  and  _22
REMARK   11  A    between atoms: _22  and  _23
REMARK   12  A    between atoms: _22  and  _25
REMARK   13  A    between atoms: _28  and  _30
REMARK   14  A    between atoms: _30  and  _31
REMARK   15  A    between atoms: _30  and  _33
REMARK   16  A    between atoms: _33  and  _34
REMARK   17  A    between atoms: _36  and  _38
REMARK   18  A    between atoms: _38  and  _39
REMARK   19  A    between atoms: _38  and  _41
REMARK   20  A    between atoms: _41  and  _42
REMARK   21  A    between atoms: _44  and  _46
REMARK   22  A    between atoms: _46  and  _47
REMARK   23  A    between atoms: _46  and  _49
REMARK   24  A    between atoms: _52  and  _54
REMARK   25  A    between atoms: _54  and  _55
REMARK   26  A    between atoms: _54  and  _57
REMARK   27  A    between atoms: _57  and  _58
REMARK   28  A    between atoms: _58  and  _59
REMARK   29  A    between atoms: _59  and  _60
REMARK   30  A    between atoms: _60  and  _61
REMARK   31  A    between atoms: _65  and  _67
REMARK   32  A    between atoms: _67  and  _68
REMARK   33  A    between atoms: _67  and  _70
REMARK   34  A    between atoms: _70  and  _71
REMARK   35  A    between atoms: _73  and  _75
REMARK   36  A    between atoms: _75  and  _76
REMARK   37  A    between atoms: _75  and  _78
REMARK   38  A    between atoms: _78  and  _79
REMARK   39  A    between atoms: _81  and  _83
REMARK   40  A    between atoms: _83  and  _84
REMARK   41  A    between atoms: _87  and  _89
REMARK   42  A    between atoms: _89  and  _90
REMARK   43  A    between atoms: _89  and  _92
REMARK   44  A    between atoms: _92  and  _93
REMARK   45  A    between atoms: _96  and  _98
REMARK   46  A    between atoms: _98  and  _99
REMARK   47  A    between atoms: _98  and  _101
REMARK   48  A    between atoms: _101  and  _102
REMARK   49  A    between atoms: _102  and  _103
REMARK   50  A    between atoms: _103  and  _104
REMARK   51  A    between atoms: _104  and  _105
REMARK   52  A    between atoms: _109  and  _111
REMARK   53  A    between atoms: _111  and  _112
REMARK   54  A    between atoms: _111  and  _114
REMARK   55  A    between atoms: _114  and  _115
REMARK   56  A    between atoms: _118  and  _120
REMARK   57  A    between atoms: _120  and  _121
REMARK   58  A    between atoms: _120  and  _123
REMARK   59  A    between atoms: _123  and  _124
REMARK   60  A    between atoms: _127  and  _129
REMARK   61  A    between atoms: _129  and  _130
REMARK   62  A    between atoms: _132  and  _134
REMARK   63  A    between atoms: _134  and  _135
REMARK   64  A    between atoms: _134  and  _137
REMARK   65  A    between atoms: _137  and  _138
REMARK   66  A    between atoms: _141  and  _143
REMARK   67  A    between atoms: _143  and  _144
REMARK   68  A    between atoms: _143  and  _146
REMARK   69  A    between atoms: _146  and  _147
REMARK   70  A    between atoms: _149  and  _151
REMARK   71  A    between atoms: _151  and  _152
REMARK   72  A    between atoms: _151  and  _154
REMARK   73  A    between atoms: _154  and  _155
REMARK   74  A    between atoms: _158  and  _160
REMARK   75  A    between atoms: _160  and  _161
REMARK   76  A    between atoms: _160  and  _163
REMARK   77  A    between atoms: _166  and  _168
REMARK   78  A    between atoms: _168  and  _169
REMARK   79  A    between atoms: _172  and  _174
REMARK   80  A    between atoms: _174  and  _175
REMARK   81  A    between atoms: _174  and  _177
REMARK   82  A    between atoms: _177  and  _178
REMARK   83  A    between atoms: _180  and  _182
REMARK   84  A    between atoms: _182  and  _183
REMARK   85  A    between atoms: _182  and  _185
REMARK   86  A    between atoms: _185  and  _186
REMARK   87  A    between atoms: _189  and  _191
REMARK   88  A    between atoms: _191  and  _192
REMARK   89  A    between atoms: _191  and  _194
REMARK   90  A    between atoms: _194  and  _195
REMARK   91  A    between atoms: _198  and  _200
REMARK   92  A    between atoms: _200  and  _201
REMARK   93  A    between atoms: _200  and  _203
REMARK   94  A    between atoms: _203  and  _204
REMARK   95  A    between atoms: _209  and  _210
REMARK   96  A    between atoms: _212  and  _214
REMARK   97  A    between atoms: _214  and  _215
REMARK   98  A    between atoms: _214  and  _217
REMARK   99  A    between atoms: _220  and  _222
REMARK  100  A    between atoms: _222  and  _223
REMARK  101  A    between atoms: _222  and  _225
REMARK  102  A    between atoms: _225  and  _226
REMARK  103  A    between atoms: _232  and  _234
REMARK  104  A    between atoms: _234  and  _235
REMARK  105  A    between atoms: _234  and  _237
REMARK  106  A    between atoms: _239  and  _241
REMARK  107  A    between atoms: _241  and  _242
REMARK  108  A    between atoms: _241  and  _244
REMARK  109  A    between atoms: _246  and  _248
REMARK  110  A    between atoms: _248  and  _249
REMARK  111  A    between atoms: _251  and  _253
REMARK  112  A    between atoms: _253  and  _254
REMARK  113  A    between atoms: _253  and  _256
REMARK  114  A    between atoms: _256  and  _257
REMARK  115  A    between atoms: _259  and  _261
REMARK  116  A    between atoms: _261  and  _262
REMARK  117  A    between atoms: _261  and  _264
REMARK  118  A    between atoms: _264  and  _265
REMARK  119  A    between atoms: _271  and  _273
REMARK  120  A    between atoms: _273  and  _274
REMARK  121  A    between atoms: _273  and  _276
REMARK  122  A    between atoms: _276  and  _277
REMARK  123  A    between atoms: _281  and  _282
REMARK  124  A    between atoms: _287  and  _289
REMARK  125  A    between atoms: _289  and  _290
REMARK  126  A    between atoms: _289  and  _292
REMARK  127  A    between atoms: _295  and  _297
REMARK  128  A    between atoms: _297  and  _298
REMARK  129  A    between atoms: _297  and  _300
REMARK  130  A    between atoms: _300  and  _301
REMARK  131  A    between atoms: _303  and  _305
REMARK  132  A    between atoms: _305  and  _306
REMARK  133  A    between atoms: _309  and  _311
REMARK  134  A    between atoms: _311  and  _312
REMARK  135  A    between atoms: _311  and  _314
REMARK  136  A    between atoms: _317  and  _319
REMARK  137  A    between atoms: _319  and  _320
REMARK  138  A    between atoms: _319  and  _322
REMARK  139  A    between atoms: _322  and  _323
REMARK  140  A    between atoms: _325  and  _327
REMARK  141  A    between atoms: _327  and  _328
REMARK  142  A    between atoms: _327  and  _330
REMARK  143  A    between atoms: _330  and  _331
REMARK  144  A    between atoms: _333  and  _335
REMARK  145  A    between atoms: _335  and  _336
REMARK  146  A    between atoms: _335  and  _338
REMARK  147  A    between atoms: _338  and  _339
REMARK  148  A    between atoms: _344  and  _345
REMARK  149  A    between atoms: _348  and  _349
REMARK  150  A    between atoms: _354  and  _356
REMARK  151  A    between atoms: _356  and  _357
REMARK  152  A    between atoms: _356  and  _359
REMARK  153  A    between atoms: _362  and  _364
REMARK  154  A    between atoms: _364  and  _365
REMARK  155  A    between atoms: _364  and  _367
REMARK  156  A    between atoms: _367  and  _368
REMARK  157  A    between atoms: _370  and  _372
REMARK  158  A    between atoms: _372  and  _373
REMARK  159  A    between atoms: _372  and  _375
REMARK  160  A    between atoms: _375  and  _376
REMARK  161  A    between atoms: _382  and  _384
REMARK  162  A    between atoms: _384  and  _385
REMARK  163  A    between atoms: _384  and  _387
REMARK  164  A    between atoms: _387  and  _388
REMARK  165  A    between atoms: _391  and  _393
REMARK  166  A    between atoms: _393  and  _394
REMARK  167  A    between atoms: _393  and  _396
REMARK  168  A    between atoms: _396  and  _397
REMARK  169  A    between atoms: _397  and  _398
REMARK  170  A    between atoms: _398  and  _399
REMARK  171  A    between atoms: _399  and  _400
REMARK  172  A    between atoms: _404  and  _406
REMARK  173  A    between atoms: _406  and  _407
REMARK  174  A    between atoms: _406  and  _409
REMARK  175  A    between atoms: _409  and  _410
REMARK  176  A    between atoms: _415  and  _416
REMARK  177  A    between atoms: _418  and  _420
REMARK  178  A    between atoms: _420  and  _421
REMARK  179  A    between atoms: _420  and  _423
REMARK  180  A    between atoms: _425  and  _427
REMARK  181  A    between atoms: _427  and  _428
REMARK  182  A    between atoms: _427  and  _430
REMARK  183  A    between atoms: _430  and  _431
REMARK  184  A    between atoms: _434  and  _436
REMARK  185  A    between atoms: _436  and  _437
REMARK  186  A    between atoms: _436  and  _439
REMARK  187  A    between atoms: _439  and  _440
REMARK  188  A    between atoms: _446  and  _448
REMARK  189  A    between atoms: _448  and  _449
REMARK  190  A    between atoms: _448  and  _451
REMARK  191  A    between atoms: _454  and  _456
REMARK  192  A    between atoms: _456  and  _457
REMARK  193  A    between atoms: _456  and  _459
REMARK  194  A    between atoms: _459  and  _460
REMARK  195  A    between atoms: _463  and  _465
REMARK  196  A    between atoms: _465  and  _466
REMARK  197  A    between atoms: _465  and  _468
REMARK  198  A    between atoms: _468  and  _469
REMARK  199  A    between atoms: _471  and  _473
REMARK  200  A    between atoms: _473  and  _474
REMARK  201  A    between atoms: _473  and  _476
REMARK  202  A    between atoms: _476  and  _477
REMARK  203  A    between atoms: _480  and  _482
REMARK  204  A    between atoms: _482  and  _483
REMARK  205  A    between atoms: _486  and  _488
REMARK  206  A    between atoms: _488  and  _489
REMARK  207  A    between atoms: _488  and  _491
REMARK  208  A    between atoms: _491  and  _492
REMARK  209  A    between atoms: _495  and  _497
REMARK  210  A    between atoms: _497  and  _498
REMARK  211  A    between atoms: _497  and  _500
REMARK  212  A    between atoms: _500  and  _501
REMARK  213  A    between atoms: _501  and  _502
REMARK                            x       y       z     vdW  Elec       q    Type
REMARK                         _______ _______ _______ _____ _____    ______ ____
ROOT
ATOM      1  O   HOH     1      -6.160 -34.958   1.153  0.00  0.00    +0.000 OA
ENDROOT
TORSDOF 0
REMARK  Name = ../refined-set-2016/4ql1/4ql1_pocket.pdb
REMARK  213 active torsions:
REMARK  status: ('A' for Active; 'I' for Inactive)
REMARK    1  A    between atoms: _1  and  _3
REMARK    2  A    between atoms: _3  and  _4
REMARK    3  A    between atoms: _3  and  _6
REMARK    4  A    between atoms: _6  and  _7
REMARK    5  A    between atoms: _7  and  _8
REMARK    6  A    between atoms: _8  and  _9
REMARK    7  A    between atoms: _9  and  _10
REMARK    8  A    between atoms: _14  and  _16
REMARK    9  A    between atoms: _16  and  _17
REMARK   10  A    between atoms: _20  and  _22
REMARK   11  A    between atoms: _22  and  _23
REMARK   12  A    between atoms: _22  and  _25
REMARK   13  A    between atoms: _28  and  _30
REMARK   14  A    between atoms: _30  and  _31
REMARK   15  A    between atoms: _30  and  _33
REMARK   16  A    between atoms: _33  and  _34
REMARK   17  A    between atoms: _36  and  _38
REMARK   18  A    between atoms: _38  and  _39
REMARK   19  A    between atoms: _38  and  _41
REMARK   20  A    between atoms: _41  and  _42
REMARK   21  A    between atoms: _44  and  _46
REMARK   22  A    between atoms: _46  and  _47
REMARK   23  A    between atoms: _46  and  _49
REMARK   24  A    between atoms: _52  and  _54
REMARK   25  A    between atoms: _54  and  _55
REMARK   26  A    between atoms: _54  and  _57
REMARK   27  A    between atoms: _57  and  _58
REMARK   28  A    between atoms: _58  and  _59
REMARK   29  A    between atoms: _59  and  _60
REMARK   30  A    between atoms: _60  and  _61
REMARK   31  A    between atoms: _65  and  _67
REMARK   32  A    between atoms: _67  and  _68
REMARK   33  A    between atoms: _67  and  _70
REMARK   34  A    between atoms: _70  and  _71
REMARK   35  A    between atoms: _73  and  _75
REMARK   36  A    between atoms: _75  and  _76
REMARK   37  A    between atoms: _75  and  _78
REMARK   38  A    between atoms: _78  and  _79
REMARK   39  A    between atoms: _81  and  _83
REMARK   40  A    between atoms: _83  and  _84
REMARK   41  A    between atoms: _87  and  _89
REMARK   42  A    between atoms: _89  and  _90
REMARK   43  A    between atoms: _89  and  _92
REMARK   44  A    between atoms: _92  and  _93
REMARK   45  A    between atoms: _96  and  _98
REMARK   46  A    between atoms: _98  and  _99
REMARK   47  A    between atoms: _98  and  _101
REMARK   48  A    between atoms: _101  and  _102
REMARK   49  A    between atoms: _102  and  _103
REMARK   50  A    between atoms: _103  and  _104
REMARK   51  A    between atoms: _104  and  _105
REMARK   52  A    between atoms: _109  and  _111
REMARK   53  A    between atoms: _111  and  _112
REMARK   54  A    between atoms: _111  and  _114
REMARK   55  A    between atoms: _114  and  _115
REMARK   56  A    between atoms: _118  and  _120
REMARK   57  A    between atoms: _120  and  _121
REMARK   58  A    between atoms: _120  and  _123
REMARK   59  A    between atoms: _123  and  _124
REMARK   60  A    between atoms: _127  and  _129
REMARK   61  A    between atoms: _129  and  _130
REMARK   62  A    between atoms: _132  and  _134
REMARK   63  A    between atoms: _134  and  _135
REMARK   64  A    between atoms: _134  and  _137
REMARK   65  A    between atoms: _137  and  _138
REMARK   66  A    between atoms: _141  and  _143
REMARK   67  A    between atoms: _143  and  _144
REMARK   68  A    between atoms: _143  and  _146
REMARK   69  A    between atoms: _146  and  _147
REMARK   70  A    between atoms: _149  and  _151
REMARK   71  A    between atoms: _151  and  _152
REMARK   72  A    between atoms: _151  and  _154
REMARK   73  A    between atoms: _154  and  _155
REMARK   74  A    between atoms: _158  and  _160
REMARK   75  A    between atoms: _160  and  _161
REMARK   76  A    between atoms: _160  and  _163
REMARK   77  A    between atoms: _166  and  _168
REMARK   78  A    between atoms: _168  and  _169
REMARK   79  A    between atoms: _172  and  _174
REMARK   80  A    between atoms: _174  and  _175
REMARK   81  A    between atoms: _174  and  _177
REMARK   82  A    between atoms: _177  and  _178
REMARK   83  A    between atoms: _180  and  _182
REMARK   84  A    between atoms: _182  and  _183
REMARK   85  A    between atoms: _182  and  _185
REMARK   86  A    between atoms: _185  and  _186
REMARK   87  A    between atoms: _189  and  _191
REMARK   88  A    between atoms: _191  and  _192
REMARK   89  A    between atoms: _191  and  _194
REMARK   90  A    between atoms: _194  and  _195
REMARK   91  A    between atoms: _198  and  _200
REMARK   92  A    between atoms: _200  and  _201
REMARK   93  A    between atoms: _200  and  _203
REMARK   94  A    between atoms: _203  and  _204
REMARK   95  A    between atoms: _209  and  _210
REMARK   96  A    between atoms: _212  and  _214
REMARK   97  A    between atoms: _214  and  _215
REMARK   98  A    between atoms: _214  and  _217
REMARK   99  A    between atoms: _220  and  _222
REMARK  100  A    between atoms: _222  and  _223
REMARK  101  A    between atoms: _222  and  _225
REMARK  102  A    between atoms: _225  and  _226
REMARK  103  A    between atoms: _232  and  _234
REMARK  104  A    between atoms: _234  and  _235
REMARK  105  A    between atoms: _234  and  _237
REMARK  106  A    between atoms: _239  and  _241
REMARK  107  A    between atoms: _241  and  _242
REMARK  108  A    between atoms: _241  and  _244
REMARK  109  A    between atoms: _246  and  _248
REMARK  110  A    between atoms: _248  and  _249
REMARK  111  A    between atoms: _251  and  _253
REMARK  112  A    between atoms: _253  and  _254
REMARK  113  A    between atoms: _253  and  _256
REMARK  114  A    between atoms: _256  and  _257
REMARK  115  A    between atoms: _259  and  _261
REMARK  116  A    between atoms: _261  and  _262
REMARK  117  A    between atoms: _261  and  _264
REMARK  118  A    between atoms: _264  and  _265
REMARK  119  A    between atoms: _271  and  _273
REMARK  120  A    between atoms: _273  and  _274
REMARK  121  A    between atoms: _273  and  _276
REMARK  122  A    between atoms: _276  and  _277
REMARK  123  A    between atoms: _281  and  _282
REMARK  124  A    between atoms: _287  and  _289
REMARK  125  A    between atoms: _289  and  _290
REMARK  126  A    between atoms: _289  and  _292
REMARK  127  A    between atoms: _295  and  _297
REMARK  128  A    between atoms: _297  and  _298
REMARK  129  A    between atoms: _297  and  _300
REMARK  130  A    between atoms: _300  and  _301
REMARK  131  A    between atoms: _303  and  _305
REMARK  132  A    between atoms: _305  and  _306
REMARK  133  A    between atoms: _309  and  _311
REMARK  134  A    between atoms: _311  and  _312
REMARK  135  A    between atoms: _311  and  _314
REMARK  136  A    between atoms: _317  and  _319
REMARK  137  A    between atoms: _319  and  _320
REMARK  138  A    between atoms: _319  and  _322
REMARK  139  A    between atoms: _322  and  _323
REMARK  140  A    between atoms: _325  and  _327
REMARK  141  A    between atoms: _327  and  _328
REMARK  142  A    between atoms: _327  and  _330
REMARK  143  A    between atoms: _330  and  _331
REMARK  144  A    between atoms: _333  and  _335
REMARK  145  A    between atoms: _335  and  _336
REMARK  146  A    between atoms: _335  and  _338
REMARK  147  A    between atoms: _338  and  _339
REMARK  148  A    between atoms: _344  and  _345
REMARK  149  A    between atoms: _348  and  _349
REMARK  150  A    between atoms: _354  and  _356
REMARK  151  A    between atoms: _356  and  _357
REMARK  152  A    between atoms: _356  and  _359
REMARK  153  A    between atoms: _362  and  _364
REMARK  154  A    between atoms: _364  and  _365
REMARK  155  A    between atoms: _364  and  _367
REMARK  156  A    between atoms: _367  and  _368
REMARK  157  A    between atoms: _370  and  _372
REMARK  158  A    between atoms: _372  and  _373
REMARK  159  A    between atoms: _372  and  _375
REMARK  160  A    between atoms: _375  and  _376
REMARK  161  A    between atoms: _382  and  _384
REMARK  162  A    between atoms: _384  and  _385
REMARK  163  A    between atoms: _384  and  _387
REMARK  164  A    between atoms: _387  and  _388
REMARK  165  A    between atoms: _391  and  _393
REMARK  166  A    between atoms: _393  and  _394
REMARK  167  A    between atoms: _393  and  _396
REMARK  168  A    between atoms: _396  and  _397
REMARK  169  A    between atoms: _397  and  _398
REMARK  170  A    between atoms: _398  and  _399
REMARK  171  A    between atoms: _399  and  _400
REMARK  172  A    between atoms: _404  and  _406
REMARK  173  A    between atoms: _406  and  _407
REMARK  174  A    between atoms: _406  and  _409
REMARK  175  A    between atoms: _409  and  _410
REMARK  176  A    between atoms: _415  and  _416
REMARK  177  A    between atoms: _418  and  _420
REMARK  178  A    between atoms: _420  and  _421
REMARK  179  A    between atoms: _420  and  _423
REMARK  180  A    between atoms: _425  and  _427
REMARK  181  A    between atoms: _427  and  _428
REMARK  182  A    between atoms: _427  and  _430
REMARK  183  A    between atoms: _430  and  _431
REMARK  184  A    between atoms: _434  and  _436
REMARK  185  A    between atoms: _436  and  _437
REMARK  186  A    between atoms: _436  and  _439
REMARK  187  A    between atoms: _439  and  _440
REMARK  188  A    between atoms: _446  and  _448
REMARK  189  A    between atoms: _448  and  _449
REMARK  190  A    between atoms: _448  and  _451
REMARK  191  A    between atoms: _454  and  _456
REMARK  192  A    between atoms: _456  and  _457
REMARK  193  A    between atoms: _456  and  _459
REMARK  194  A    between atoms: _459  and  _460
REMARK  195  A    between atoms: _463  and  _465
REMARK  196  A    between atoms: _465  and  _466
REMARK  197  A    between atoms: _465  and  _468
REMARK  198  A    between atoms: _468  and  _469
REMARK  199  A    between atoms: _471  and  _473
REMARK  200  A    between atoms: _473  and  _474
REMARK  201  A    between atoms: _473  and  _476
REMARK  202  A    between atoms: _476  and  _477
REMARK  203  A    between atoms: _480  and  _482
REMARK  204  A    between atoms: _482  and  _483
REMARK  205  A    between atoms: _486  and  _488
REMARK  206  A    between atoms: _488  and  _489
REMARK  207  A    between atoms: _488  and  _491
REMARK  208  A    between atoms: _491  and  _492
REMARK  209  A    between atoms: _495  and  _497
REMARK  210  A    between atoms: _497  and  _498
REMARK  211  A    between atoms: _497  and  _500
REMARK  212  A    between atoms: _500  and  _501
REMARK  213  A    between atoms: _501  and  _502
REMARK                            x       y       z     vdW  Elec       q    Type
REMARK                         _______ _______ _______ _____ _____    ______ ____
ROOT
ATOM      1  O   HOH     1      -7.742 -35.478  -0.938  0.00  0.00    +0.000 OA
ENDROOT
TORSDOF 0
REMARK  Name = ../refined-set-2016/4ql1/4ql1_pocket.pdb
REMARK  213 active torsions:
REMARK  status: ('A' for Active; 'I' for Inactive)
REMARK    1  A    between atoms: _1  and  _3
REMARK    2  A    between atoms: _3  and  _4
REMARK    3  A    between atoms: _3  and  _6
REMARK    4  A    between atoms: _6  and  _7
REMARK    5  A    between atoms: _7  and  _8
REMARK    6  A    between atoms: _8  and  _9
REMARK    7  A    between atoms: _9  and  _10
REMARK    8  A    between atoms: _14  and  _16
REMARK    9  A    between atoms: _16  and  _17
REMARK   10  A    between atoms: _20  and  _22
REMARK   11  A    between atoms: _22  and  _23
REMARK   12  A    between atoms: _22  and  _25
REMARK   13  A    between atoms: _28  and  _30
REMARK   14  A    between atoms: _30  and  _31
REMARK   15  A    between atoms: _30  and  _33
REMARK   16  A    between atoms: _33  and  _34
REMARK   17  A    between atoms: _36  and  _38
REMARK   18  A    between atoms: _38  and  _39
REMARK   19  A    between atoms: _38  and  _41
REMARK   20  A    between atoms: _41  and  _42
REMARK   21  A    between atoms: _44  and  _46
REMARK   22  A    between atoms: _46  and  _47
REMARK   23  A    between atoms: _46  and  _49
REMARK   24  A    between atoms: _52  and  _54
REMARK   25  A    between atoms: _54  and  _55
REMARK   26  A    between atoms: _54  and  _57
REMARK   27  A    between atoms: _57  and  _58
REMARK   28  A    between atoms: _58  and  _59
REMARK   29  A    between atoms: _59  and  _60
REMARK   30  A    between atoms: _60  and  _61
REMARK   31  A    between atoms: _65  and  _67
REMARK   32  A    between atoms: _67  and  _68
REMARK   33  A    between atoms: _67  and  _70
REMARK   34  A    between atoms: _70  and  _71
REMARK   35  A    between atoms: _73  and  _75
REMARK   36  A    between atoms: _75  and  _76
REMARK   37  A    between atoms: _75  and  _78
REMARK   38  A    between atoms: _78  and  _79
REMARK   39  A    between atoms: _81  and  _83
REMARK   40  A    between atoms: _83  and  _84
REMARK   41  A    between atoms: _87  and  _89
REMARK   42  A    between atoms: _89  and  _90
REMARK   43  A    between atoms: _89  and  _92
REMARK   44  A    between atoms: _92  and  _93
REMARK   45  A    between atoms: _96  and  _98
REMARK   46  A    between atoms: _98  and  _99
REMARK   47  A    between atoms: _98  and  _101
REMARK   48  A    between atoms: _101  and  _102
REMARK   49  A    between atoms: _102  and  _103
REMARK   50  A    between atoms: _103  and  _104
REMARK   51  A    between atoms: _104  and  _105
REMARK   52  A    between atoms: _109  and  _111
REMARK   53  A    between atoms: _111  and  _112
REMARK   54  A    between atoms: _111  and  _114
REMARK   55  A    between atoms: _114  and  _115
REMARK   56  A    between atoms: _118  and  _120
REMARK   57  A    between atoms: _120  and  _121
REMARK   58  A    between atoms: _120  and  _123
REMARK   59  A    between atoms: _123  and  _124
REMARK   60  A    between atoms: _127  and  _129
REMARK   61  A    between atoms: _129  and  _130
REMARK   62  A    between atoms: _132  and  _134
REMARK   63  A    between atoms: _134  and  _135
REMARK   64  A    between atoms: _134  and  _137
REMARK   65  A    between atoms: _137  and  _138
REMARK   66  A    between atoms: _141  and  _143
REMARK   67  A    between atoms: _143  and  _144
REMARK   68  A    between atoms: _143  and  _146
REMARK   69  A    between atoms: _146  and  _147
REMARK   70  A    between atoms: _149  and  _151
REMARK   71  A    between atoms: _151  and  _152
REMARK   72  A    between atoms: _151  and  _154
REMARK   73  A    between atoms: _154  and  _155
REMARK   74  A    between atoms: _158  and  _160
REMARK   75  A    between atoms: _160  and  _161
REMARK   76  A    between atoms: _160  and  _163
REMARK   77  A    between atoms: _166  and  _168
REMARK   78  A    between atoms: _168  and  _169
REMARK   79  A    between atoms: _172  and  _174
REMARK   80  A    between atoms: _174  and  _175
REMARK   81  A    between atoms: _174  and  _177
REMARK   82  A    between atoms: _177  and  _178
REMARK   83  A    between atoms: _180  and  _182
REMARK   84  A    between atoms: _182  and  _183
REMARK   85  A    between atoms: _182  and  _185
REMARK   86  A    between atoms: _185  and  _186
REMARK   87  A    between atoms: _189  and  _191
REMARK   88  A    between atoms: _191  and  _192
REMARK   89  A    between atoms: _191  and  _194
REMARK   90  A    between atoms: _194  and  _195
REMARK   91  A    between atoms: _198  and  _200
REMARK   92  A    between atoms: _200  and  _201
REMARK   93  A    between atoms: _200  and  _203
REMARK   94  A    between atoms: _203  and  _204
REMARK   95  A    between atoms: _209  and  _210
REMARK   96  A    between atoms: _212  and  _214
REMARK   97  A    between atoms: _214  and  _215
REMARK   98  A    between atoms: _214  and  _217
REMARK   99  A    between atoms: _220  and  _222
REMARK  100  A    between atoms: _222  and  _223
REMARK  101  A    between atoms: _222  and  _225
REMARK  102  A    between atoms: _225  and  _226
REMARK  103  A    between atoms: _232  and  _234
REMARK  104  A    between atoms: _234  and  _235
REMARK  105  A    between atoms: _234  and  _237
REMARK  106  A    between atoms: _239  and  _241
REMARK  107  A    between atoms: _241  and  _242
REMARK  108  A    between atoms: _241  and  _244
REMARK  109  A    between atoms: _246  and  _248
REMARK  110  A    between atoms: _248  and  _249
REMARK  111  A    between atoms: _251  and  _253
REMARK  112  A    between atoms: _253  and  _254
REMARK  113  A    between atoms: _253  and  _256
REMARK  114  A    between atoms: _256  and  _257
REMARK  115  A    between atoms: _259  and  _261
REMARK  116  A    between atoms: _261  and  _262
REMARK  117  A    between atoms: _261  and  _264
REMARK  118  A    between atoms: _264  and  _265
REMARK  119  A    between atoms: _271  and  _273
REMARK  120  A    between atoms: _273  and  _274
REMARK  121  A    between atoms: _273  and  _276
REMARK  122  A    between atoms: _276  and  _277
REMARK  123  A    between atoms: _281  and  _282
REMARK  124  A    between atoms: _287  and  _289
REMARK  125  A    between atoms: _289  and  _290
REMARK  126  A    between atoms: _289  and  _292
REMARK  127  A    between atoms: _295  and  _297
REMARK  128  A    between atoms: _297  and  _298
REMARK  129  A    between atoms: _297  and  _300
REMARK  130  A    between atoms: _300  and  _301
REMARK  131  A    between atoms: _303  and  _305
REMARK  132  A    between atoms: _305  and  _306
REMARK  133  A    between atoms: _309  and  _311
REMARK  134  A    between atoms: _311  and  _312
REMARK  135  A    between atoms: _311  and  _314
REMARK  136  A    between atoms: _317  and  _319
REMARK  137  A    between atoms: _319  and  _320
REMARK  138  A    between atoms: _319  and  _322
REMARK  139  A    between atoms: _322  and  _323
REMARK  140  A    between atoms: _325  and  _327
REMARK  141  A    between atoms: _327  and  _328
REMARK  142  A    between atoms: _327  and  _330
REMARK  143  A    between atoms: _330  and  _331
REMARK  144  A    between atoms: _333  and  _335
REMARK  145  A    between atoms: _335  and  _336
REMARK  146  A    between atoms: _335  and  _338
REMARK  147  A    between atoms: _338  and  _339
REMARK  148  A    between atoms: _344  and  _345
REMARK  149  A    between atoms: _348  and  _349
REMARK  150  A    between atoms: _354  and  _356
REMARK  151  A    between atoms: _356  and  _357
REMARK  152  A    between atoms: _356  and  _359
REMARK  153  A    between atoms: _362  and  _364
REMARK  154  A    between atoms: _364  and  _365
REMARK  155  A    between atoms: _364  and  _367
REMARK  156  A    between atoms: _367  and  _368
REMARK  157  A    between atoms: _370  and  _372
REMARK  158  A    between atoms: _372  and  _373
REMARK  159  A    between atoms: _372  and  _375
REMARK  160  A    between atoms: _375  and  _376
REMARK  161  A    between atoms: _382  and  _384
REMARK  162  A    between atoms: _384  and  _385
REMARK  163  A    between atoms: _384  and  _387
REMARK  164  A    between atoms: _387  and  _388
REMARK  165  A    between atoms: _391  and  _393
REMARK  166  A    between atoms: _393  and  _394
REMARK  167  A    between atoms: _393  and  _396
REMARK  168  A    between atoms: _396  and  _397
REMARK  169  A    between atoms: _397  and  _398
REMARK  170  A    between atoms: _398  and  _399
REMARK  171  A    between atoms: _399  and  _400
REMARK  172  A    between atoms: _404  and  _406
REMARK  173  A    between atoms: _406  and  _407
REMARK  174  A    between atoms: _406  and  _409
REMARK  175  A    between atoms: _409  and  _410
REMARK  176  A    between atoms: _415  and  _416
REMARK  177  A    between atoms: _418  and  _420
REMARK  178  A    between atoms: _420  and  _421
REMARK  179  A    between atoms: _420  and  _423
REMARK  180  A    between atoms: _425  and  _427
REMARK  181  A    between atoms: _427  and  _428
REMARK  182  A    between atoms: _427  and  _430
REMARK  183  A    between atoms: _430  and  _431
REMARK  184  A    between atoms: _434  and  _436
REMARK  185  A    between atoms: _436  and  _437
REMARK  186  A    between atoms: _436  and  _439
REMARK  187  A    between atoms: _439  and  _440
REMARK  188  A    between atoms: _446  and  _448
REMARK  189  A    between atoms: _448  and  _449
REMARK  190  A    between atoms: _448  and  _451
REMARK  191  A    between atoms: _454  and  _456
REMARK  192  A    between atoms: _456  and  _457
REMARK  193  A    between atoms: _456  and  _459
REMARK  194  A    between atoms: _459  and  _460
REMARK  195  A    between atoms: _463  and  _465
REMARK  196  A    between atoms: _465  and  _466
REMARK  197  A    between atoms: _465  and  _468
REMARK  198  A    between atoms: _468  and  _469
REMARK  199  A    between atoms: _471  and  _473
REMARK  200  A    between atoms: _473  and  _474
REMARK  201  A    between atoms: _473  and  _476
REMARK  202  A    between atoms: _476  and  _477
REMARK  203  A    between atoms: _480  and  _482
REMARK  204  A    between atoms: _482  and  _483
REMARK  205  A    between atoms: _486  and  _488
REMARK  206  A    between atoms: _488  and  _489
REMARK  207  A    between atoms: _488  and  _491
REMARK  208  A    between atoms: _491  and  _492
REMARK  209  A    between atoms: _495  and  _497
REMARK  210  A    between atoms: _497  and  _498
REMARK  211  A    between atoms: _497  and  _500
REMARK  212  A    between atoms: _500  and  _501
REMARK  213  A    between atoms: _501  and  _502
REMARK                            x       y       z     vdW  Elec       q    Type
REMARK                         _______ _______ _______ _____ _____    ______ ____
ROOT
ATOM      1  O   HOH     1      -8.062 -26.705  -1.293  0.00  0.00    +0.000 OA
ENDROOT
TORSDOF 0
REMARK  Name = ../refined-set-2016/4ql1/4ql1_pocket.pdb
REMARK  213 active torsions:
REMARK  status: ('A' for Active; 'I' for Inactive)
REMARK    1  A    between atoms: _1  and  _3
REMARK    2  A    between atoms: _3  and  _4
REMARK    3  A    between atoms: _3  and  _6
REMARK    4  A    between atoms: _6  and  _7
REMARK    5  A    between atoms: _7  and  _8
REMARK    6  A    between atoms: _8  and  _9
REMARK    7  A    between atoms: _9  and  _10
REMARK    8  A    between atoms: _14  and  _16
REMARK    9  A    between atoms: _16  and  _17
REMARK   10  A    between atoms: _20  and  _22
REMARK   11  A    between atoms: _22  and  _23
REMARK   12  A    between atoms: _22  and  _25
REMARK   13  A    between atoms: _28  and  _30
REMARK   14  A    between atoms: _30  and  _31
REMARK   15  A    between atoms: _30  and  _33
REMARK   16  A    between atoms: _33  and  _34
REMARK   17  A    between atoms: _36  and  _38
REMARK   18  A    between atoms: _38  and  _39
REMARK   19  A    between atoms: _38  and  _41
REMARK   20  A    between atoms: _41  and  _42
REMARK   21  A    between atoms: _44  and  _46
REMARK   22  A    between atoms: _46  and  _47
REMARK   23  A    between atoms: _46  and  _49
REMARK   24  A    between atoms: _52  and  _54
REMARK   25  A    between atoms: _54  and  _55
REMARK   26  A    between atoms: _54  and  _57
REMARK   27  A    between atoms: _57  and  _58
REMARK   28  A    between atoms: _58  and  _59
REMARK   29  A    between atoms: _59  and  _60
REMARK   30  A    between atoms: _60  and  _61
REMARK   31  A    between atoms: _65  and  _67
REMARK   32  A    between atoms: _67  and  _68
REMARK   33  A    between atoms: _67  and  _70
REMARK   34  A    between atoms: _70  and  _71
REMARK   35  A    between atoms: _73  and  _75
REMARK   36  A    between atoms: _75  and  _76
REMARK   37  A    between atoms: _75  and  _78
REMARK   38  A    between atoms: _78  and  _79
REMARK   39  A    between atoms: _81  and  _83
REMARK   40  A    between atoms: _83  and  _84
REMARK   41  A    between atoms: _87  and  _89
REMARK   42  A    between atoms: _89  and  _90
REMARK   43  A    between atoms: _89  and  _92
REMARK   44  A    between atoms: _92  and  _93
REMARK   45  A    between atoms: _96  and  _98
REMARK   46  A    between atoms: _98  and  _99
REMARK   47  A    between atoms: _98  and  _101
REMARK   48  A    between atoms: _101  and  _102
REMARK   49  A    between atoms: _102  and  _103
REMARK   50  A    between atoms: _103  and  _104
REMARK   51  A    between atoms: _104  and  _105
REMARK   52  A    between atoms: _109  and  _111
REMARK   53  A    between atoms: _111  and  _112
REMARK   54  A    between atoms: _111  and  _114
REMARK   55  A    between atoms: _114  and  _115
REMARK   56  A    between atoms: _118  and  _120
REMARK   57  A    between atoms: _120  and  _121
REMARK   58  A    between atoms: _120  and  _123
REMARK   59  A    between atoms: _123  and  _124
REMARK   60  A    between atoms: _127  and  _129
REMARK   61  A    between atoms: _129  and  _130
REMARK   62  A    between atoms: _132  and  _134
REMARK   63  A    between atoms: _134  and  _135
REMARK   64  A    between atoms: _134  and  _137
REMARK   65  A    between atoms: _137  and  _138
REMARK   66  A    between atoms: _141  and  _143
REMARK   67  A    between atoms: _143  and  _144
REMARK   68  A    between atoms: _143  and  _146
REMARK   69  A    between atoms: _146  and  _147
REMARK   70  A    between atoms: _149  and  _151
REMARK   71  A    between atoms: _151  and  _152
REMARK   72  A    between atoms: _151  and  _154
REMARK   73  A    between atoms: _154  and  _155
REMARK   74  A    between atoms: _158  and  _160
REMARK   75  A    between atoms: _160  and  _161
REMARK   76  A    between atoms: _160  and  _163
REMARK   77  A    between atoms: _166  and  _168
REMARK   78  A    between atoms: _168  and  _169
REMARK   79  A    between atoms: _172  and  _174
REMARK   80  A    between atoms: _174  and  _175
REMARK   81  A    between atoms: _174  and  _177
REMARK   82  A    between atoms: _177  and  _178
REMARK   83  A    between atoms: _180  and  _182
REMARK   84  A    between atoms: _182  and  _183
REMARK   85  A    between atoms: _182  and  _185
REMARK   86  A    between atoms: _185  and  _186
REMARK   87  A    between atoms: _189  and  _191
REMARK   88  A    between atoms: _191  and  _192
REMARK   89  A    between atoms: _191  and  _194
REMARK   90  A    between atoms: _194  and  _195
REMARK   91  A    between atoms: _198  and  _200
REMARK   92  A    between atoms: _200  and  _201
REMARK   93  A    between atoms: _200  and  _203
REMARK   94  A    between atoms: _203  and  _204
REMARK   95  A    between atoms: _209  and  _210
REMARK   96  A    between atoms: _212  and  _214
REMARK   97  A    between atoms: _214  and  _215
REMARK   98  A    between atoms: _214  and  _217
REMARK   99  A    between atoms: _220  and  _222
REMARK  100  A    between atoms: _222  and  _223
REMARK  101  A    between atoms: _222  and  _225
REMARK  102  A    between atoms: _225  and  _226
REMARK  103  A    between atoms: _232  and  _234
REMARK  104  A    between atoms: _234  and  _235
REMARK  105  A    between atoms: _234  and  _237
REMARK  106  A    between atoms: _239  and  _241
REMARK  107  A    between atoms: _241  and  _242
REMARK  108  A    between atoms: _241  and  _244
REMARK  109  A    between atoms: _246  and  _248
REMARK  110  A    between atoms: _248  and  _249
REMARK  111  A    between atoms: _251  and  _253
REMARK  112  A    between atoms: _253  and  _254
REMARK  113  A    between atoms: _253  and  _256
REMARK  114  A    between atoms: _256  and  _257
REMARK  115  A    between atoms: _259  and  _261
REMARK  116  A    between atoms: _261  and  _262
REMARK  117  A    between atoms: _261  and  _264
REMARK  118  A    between atoms: _264  and  _265
REMARK  119  A    between atoms: _271  and  _273
REMARK  120  A    between atoms: _273  and  _274
REMARK  121  A    between atoms: _273  and  _276
REMARK  122  A    between atoms: _276  and  _277
REMARK  123  A    between atoms: _281  and  _282
REMARK  124  A    between atoms: _287  and  _289
REMARK  125  A    between atoms: _289  and  _290
REMARK  126  A    between atoms: _289  and  _292
REMARK  127  A    between atoms: _295  and  _297
REMARK  128  A    between atoms: _297  and  _298
REMARK  129  A    between atoms: _297  and  _300
REMARK  130  A    between atoms: _300  and  _301
REMARK  131  A    between atoms: _303  and  _305
REMARK  132  A    between atoms: _305  and  _306
REMARK  133  A    between atoms: _309  and  _311
REMARK  134  A    between atoms: _311  and  _312
REMARK  135  A    between atoms: _311  and  _314
REMARK  136  A    between atoms: _317  and  _319
REMARK  137  A    between atoms: _319  and  _320
REMARK  138  A    between atoms: _319  and  _322
REMARK  139  A    between atoms: _322  and  _323
REMARK  140  A    between atoms: _325  and  _327
REMARK  141  A    between atoms: _327  and  _328
REMARK  142  A    between atoms: _327  and  _330
REMARK  143  A    between atoms: _330  and  _331
REMARK  144  A    between atoms: _333  and  _335
REMARK  145  A    between atoms: _335  and  _336
REMARK  146  A    between atoms: _335  and  _338
REMARK  147  A    between atoms: _338  and  _339
REMARK  148  A    between atoms: _344  and  _345
REMARK  149  A    between atoms: _348  and  _349
REMARK  150  A    between atoms: _354  and  _356
REMARK  151  A    between atoms: _356  and  _357
REMARK  152  A    between atoms: _356  and  _359
REMARK  153  A    between atoms: _362  and  _364
REMARK  154  A    between atoms: _364  and  _365
REMARK  155  A    between atoms: _364  and  _367
REMARK  156  A    between atoms: _367  and  _368
REMARK  157  A    between atoms: _370  and  _372
REMARK  158  A    between atoms: _372  and  _373
REMARK  159  A    between atoms: _372  and  _375
REMARK  160  A    between atoms: _375  and  _376
REMARK  161  A    between atoms: _382  and  _384
REMARK  162  A    between atoms: _384  and  _385
REMARK  163  A    between atoms: _384  and  _387
REMARK  164  A    between atoms: _387  and  _388
REMARK  165  A    between atoms: _391  and  _393
REMARK  166  A    between atoms: _393  and  _394
REMARK  167  A    between atoms: _393  and  _396
REMARK  168  A    between atoms: _396  and  _397
REMARK  169  A    between atoms: _397  and  _398
REMARK  170  A    between atoms: _398  and  _399
REMARK  171  A    between atoms: _399  and  _400
REMARK  172  A    between atoms: _404  and  _406
REMARK  173  A    between atoms: _406  and  _407
REMARK  174  A    between atoms: _406  and  _409
REMARK  175  A    between atoms: _409  and  _410
REMARK  176  A    between atoms: _415  and  _416
REMARK  177  A    between atoms: _418  and  _420
REMARK  178  A    between atoms: _420  and  _421
REMARK  179  A    between atoms: _420  and  _423
REMARK  180  A    between atoms: _425  and  _427
REMARK  181  A    between atoms: _427  and  _428
REMARK  182  A    between atoms: _427  and  _430
REMARK  183  A    between atoms: _430  and  _431
REMARK  184  A    between atoms: _434  and  _436
REMARK  185  A    between atoms: _436  and  _437
REMARK  186  A    between atoms: _436  and  _439
REMARK  187  A    between atoms: _439  and  _440
REMARK  188  A    between atoms: _446  and  _448
REMARK  189  A    between atoms: _448  and  _449
REMARK  190  A    between atoms: _448  and  _451
REMARK  191  A    between atoms: _454  and  _456
REMARK  192  A    between atoms: _456  and  _457
REMARK  193  A    between atoms: _456  and  _459
REMARK  194  A    between atoms: _459  and  _460
REMARK  195  A    between atoms: _463  and  _465
REMARK  196  A    between atoms: _465  and  _466
REMARK  197  A    between atoms: _465  and  _468
REMARK  198  A    between atoms: _468  and  _469
REMARK  199  A    between atoms: _471  and  _473
REMARK  200  A    between atoms: _473  and  _474
REMARK  201  A    between atoms: _473  and  _476
REMARK  202  A    between atoms: _476  and  _477
REMARK  203  A    between atoms: _480  and  _482
REMARK  204  A    between atoms: _482  and  _483
REMARK  205  A    between atoms: _486  and  _488
REMARK  206  A    between atoms: _488  and  _489
REMARK  207  A    between atoms: _488  and  _491
REMARK  208  A    between atoms: _491  and  _492
REMARK  209  A    between atoms: _495  and  _497
REMARK  210  A    between atoms: _497  and  _498
REMARK  211  A    between atoms: _497  and  _500
REMARK  212  A    between atoms: _500  and  _501
REMARK  213  A    between atoms: _501  and  _502
REMARK                            x       y       z     vdW  Elec       q    Type
REMARK                         _______ _______ _______ _____ _____    ______ ____
ROOT
ATOM      1  O   HOH     1      -3.524 -26.039  -0.312  0.00  0.00    +0.000 OA
ENDROOT
TORSDOF 0
REMARK  Name = ../refined-set-2016/4ql1/4ql1_pocket.pdb
REMARK  213 active torsions:
REMARK  status: ('A' for Active; 'I' for Inactive)
REMARK    1  A    between atoms: _1  and  _3
REMARK    2  A    between atoms: _3  and  _4
REMARK    3  A    between atoms: _3  and  _6
REMARK    4  A    between atoms: _6  and  _7
REMARK    5  A    between atoms: _7  and  _8
REMARK    6  A    between atoms: _8  and  _9
REMARK    7  A    between atoms: _9  and  _10
REMARK    8  A    between atoms: _14  and  _16
REMARK    9  A    between atoms: _16  and  _17
REMARK   10  A    between atoms: _20  and  _22
REMARK   11  A    between atoms: _22  and  _23
REMARK   12  A    between atoms: _22  and  _25
REMARK   13  A    between atoms: _28  and  _30
REMARK   14  A    between atoms: _30  and  _31
REMARK   15  A    between atoms: _30  and  _33
REMARK   16  A    between atoms: _33  and  _34
REMARK   17  A    between atoms: _36  and  _38
REMARK   18  A    between atoms: _38  and  _39
REMARK   19  A    between atoms: _38  and  _41
REMARK   20  A    between atoms: _41  and  _42
REMARK   21  A    between atoms: _44  and  _46
REMARK   22  A    between atoms: _46  and  _47
REMARK   23  A    between atoms: _46  and  _49
REMARK   24  A    between atoms: _52  and  _54
REMARK   25  A    between atoms: _54  and  _55
REMARK   26  A    between atoms: _54  and  _57
REMARK   27  A    between atoms: _57  and  _58
REMARK   28  A    between atoms: _58  and  _59
REMARK   29  A    between atoms: _59  and  _60
REMARK   30  A    between atoms: _60  and  _61
REMARK   31  A    between atoms: _65  and  _67
REMARK   32  A    between atoms: _67  and  _68
REMARK   33  A    between atoms: _67  and  _70
REMARK   34  A    between atoms: _70  and  _71
REMARK   35  A    between atoms: _73  and  _75
REMARK   36  A    between atoms: _75  and  _76
REMARK   37  A    between atoms: _75  and  _78
REMARK   38  A    between atoms: _78  and  _79
REMARK   39  A    between atoms: _81  and  _83
REMARK   40  A    between atoms: _83  and  _84
REMARK   41  A    between atoms: _87  and  _89
REMARK   42  A    between atoms: _89  and  _90
REMARK   43  A    between atoms: _89  and  _92
REMARK   44  A    between atoms: _92  and  _93
REMARK   45  A    between atoms: _96  and  _98
REMARK   46  A    between atoms: _98  and  _99
REMARK   47  A    between atoms: _98  and  _101
REMARK   48  A    between atoms: _101  and  _102
REMARK   49  A    between atoms: _102  and  _103
REMARK   50  A    between atoms: _103  and  _104
REMARK   51  A    between atoms: _104  and  _105
REMARK   52  A    between atoms: _109  and  _111
REMARK   53  A    between atoms: _111  and  _112
REMARK   54  A    between atoms: _111  and  _114
REMARK   55  A    between atoms: _114  and  _115
REMARK   56  A    between atoms: _118  and  _120
REMARK   57  A    between atoms: _120  and  _121
REMARK   58  A    between atoms: _120  and  _123
REMARK   59  A    between atoms: _123  and  _124
REMARK   60  A    between atoms: _127  and  _129
REMARK   61  A    between atoms: _129  and  _130
REMARK   62  A    between atoms: _132  and  _134
REMARK   63  A    between atoms: _134  and  _135
REMARK   64  A    between atoms: _134  and  _137
REMARK   65  A    between atoms: _137  and  _138
REMARK   66  A    between atoms: _141  and  _143
REMARK   67  A    between atoms: _143  and  _144
REMARK   68  A    between atoms: _143  and  _146
REMARK   69  A    between atoms: _146  and  _147
REMARK   70  A    between atoms: _149  and  _151
REMARK   71  A    between atoms: _151  and  _152
REMARK   72  A    between atoms: _151  and  _154
REMARK   73  A    between atoms: _154  and  _155
REMARK   74  A    between atoms: _158  and  _160
REMARK   75  A    between atoms: _160  and  _161
REMARK   76  A    between atoms: _160  and  _163
REMARK   77  A    between atoms: _166  and  _168
REMARK   78  A    between atoms: _168  and  _169
REMARK   79  A    between atoms: _172  and  _174
REMARK   80  A    between atoms: _174  and  _175
REMARK   81  A    between atoms: _174  and  _177
REMARK   82  A    between atoms: _177  and  _178
REMARK   83  A    between atoms: _180  and  _182
REMARK   84  A    between atoms: _182  and  _183
REMARK   85  A    between atoms: _182  and  _185
REMARK   86  A    between atoms: _185  and  _186
REMARK   87  A    between atoms: _189  and  _191
REMARK   88  A    between atoms: _191  and  _192
REMARK   89  A    between atoms: _191  and  _194
REMARK   90  A    between atoms: _194  and  _195
REMARK   91  A    between atoms: _198  and  _200
REMARK   92  A    between atoms: _200  and  _201
REMARK   93  A    between atoms: _200  and  _203
REMARK   94  A    between atoms: _203  and  _204
REMARK   95  A    between atoms: _209  and  _210
REMARK   96  A    between atoms: _212  and  _214
REMARK   97  A    between atoms: _214  and  _215
REMARK   98  A    between atoms: _214  and  _217
REMARK   99  A    between atoms: _220  and  _222
REMARK  100  A    between atoms: _222  and  _223
REMARK  101  A    between atoms: _222  and  _225
REMARK  102  A    between atoms: _225  and  _226
REMARK  103  A    between atoms: _232  and  _234
REMARK  104  A    between atoms: _234  and  _235
REMARK  105  A    between atoms: _234  and  _237
REMARK  106  A    between atoms: _239  and  _241
REMARK  107  A    between atoms: _241  and  _242
REMARK  108  A    between atoms: _241  and  _244
REMARK  109  A    between atoms: _246  and  _248
REMARK  110  A    between atoms: _248  and  _249
REMARK  111  A    between atoms: _251  and  _253
REMARK  112  A    between atoms: _253  and  _254
REMARK  113  A    between atoms: _253  and  _256
REMARK  114  A    between atoms: _256  and  _257
REMARK  115  A    between atoms: _259  and  _261
REMARK  116  A    between atoms: _261  and  _262
REMARK  117  A    between atoms: _261  and  _264
REMARK  118  A    between atoms: _264  and  _265
REMARK  119  A    between atoms: _271  and  _273
REMARK  120  A    between atoms: _273  and  _274
REMARK  121  A    between atoms: _273  and  _276
REMARK  122  A    between atoms: _276  and  _277
REMARK  123  A    between atoms: _281  and  _282
REMARK  124  A    between atoms: _287  and  _289
REMARK  125  A    between atoms: _289  and  _290
REMARK  126  A    between atoms: _289  and  _292
REMARK  127  A    between atoms: _295  and  _297
REMARK  128  A    between atoms: _297  and  _298
REMARK  129  A    between atoms: _297  and  _300
REMARK  130  A    between atoms: _300  and  _301
REMARK  131  A    between atoms: _303  and  _305
REMARK  132  A    between atoms: _305  and  _306
REMARK  133  A    between atoms: _309  and  _311
REMARK  134  A    between atoms: _311  and  _312
REMARK  135  A    between atoms: _311  and  _314
REMARK  136  A    between atoms: _317  and  _319
REMARK  137  A    between atoms: _319  and  _320
REMARK  138  A    between atoms: _319  and  _322
REMARK  139  A    between atoms: _322  and  _323
REMARK  140  A    between atoms: _325  and  _327
REMARK  141  A    between atoms: _327  and  _328
REMARK  142  A    between atoms: _327  and  _330
REMARK  143  A    between atoms: _330  and  _331
REMARK  144  A    between atoms: _333  and  _335
REMARK  145  A    between atoms: _335  and  _336
REMARK  146  A    between atoms: _335  and  _338
REMARK  147  A    between atoms: _338  and  _339
REMARK  148  A    between atoms: _344  and  _345
REMARK  149  A    between atoms: _348  and  _349
REMARK  150  A    between atoms: _354  and  _356
REMARK  151  A    between atoms: _356  and  _357
REMARK  152  A    between atoms: _356  and  _359
REMARK  153  A    between atoms: _362  and  _364
REMARK  154  A    between atoms: _364  and  _365
REMARK  155  A    between atoms: _364  and  _367
REMARK  156  A    between atoms: _367  and  _368
REMARK  157  A    between atoms: _370  and  _372
REMARK  158  A    between atoms: _372  and  _373
REMARK  159  A    between atoms: _372  and  _375
REMARK  160  A    between atoms: _375  and  _376
REMARK  161  A    between atoms: _382  and  _384
REMARK  162  A    between atoms: _384  and  _385
REMARK  163  A    between atoms: _384  and  _387
REMARK  164  A    between atoms: _387  and  _388
REMARK  165  A    between atoms: _391  and  _393
REMARK  166  A    between atoms: _393  and  _394
REMARK  167  A    between atoms: _393  and  _396
REMARK  168  A    between atoms: _396  and  _397
REMARK  169  A    between atoms: _397  and  _398
REMARK  170  A    between atoms: _398  and  _399
REMARK  171  A    between atoms: _399  and  _400
REMARK  172  A    between atoms: _404  and  _406
REMARK  173  A    between atoms: _406  and  _407
REMARK  174  A    between atoms: _406  and  _409
REMARK  175  A    between atoms: _409  and  _410
REMARK  176  A    between atoms: _415  and  _416
REMARK  177  A    between atoms: _418  and  _420
REMARK  178  A    between atoms: _420  and  _421
REMARK  179  A    between atoms: _420  and  _423
REMARK  180  A    between atoms: _425  and  _427
REMARK  181  A    between atoms: _427  and  _428
REMARK  182  A    between atoms: _427  and  _430
REMARK  183  A    between atoms: _430  and  _431
REMARK  184  A    between atoms: _434  and  _436
REMARK  185  A    between atoms: _436  and  _437
REMARK  186  A    between atoms: _436  and  _439
REMARK  187  A    between atoms: _439  and  _440
REMARK  188  A    between atoms: _446  and  _448
REMARK  189  A    between atoms: _448  and  _449
REMARK  190  A    between atoms: _448  and  _451
REMARK  191  A    between atoms: _454  and  _456
REMARK  192  A    between atoms: _456  and  _457
REMARK  193  A    between atoms: _456  and  _459
REMARK  194  A    between atoms: _459  and  _460
REMARK  195  A    between atoms: _463  and  _465
REMARK  196  A    between atoms: _465  and  _466
REMARK  197  A    between atoms: _465  and  _468
REMARK  198  A    between atoms: _468  and  _469
REMARK  199  A    between atoms: _471  and  _473
REMARK  200  A    between atoms: _473  and  _474
REMARK  201  A    between atoms: _473  and  _476
REMARK  202  A    between atoms: _476  and  _477
REMARK  203  A    between atoms: _480  and  _482
REMARK  204  A    between atoms: _482  and  _483
REMARK  205  A    between atoms: _486  and  _488
REMARK  206  A    between atoms: _488  and  _489
REMARK  207  A    between atoms: _488  and  _491
REMARK  208  A    between atoms: _491  and  _492
REMARK  209  A    between atoms: _495  and  _497
REMARK  210  A    between atoms: _497  and  _498
REMARK  211  A    between atoms: _497  and  _500
REMARK  212  A    between atoms: _500  and  _501
REMARK  213  A    between atoms: _501  and  _502
REMARK                            x       y       z     vdW  Elec       q    Type
REMARK                         _______ _______ _______ _____ _____    ______ ____
ROOT
ATOM      1  O   HOH     1      -1.108 -28.722   1.328  0.00  0.00    +0.000 OA
ENDROOT
TORSDOF 0
REMARK  Name = ../refined-set-2016/4ql1/4ql1_pocket.pdb
REMARK  213 active torsions:
REMARK  status: ('A' for Active; 'I' for Inactive)
REMARK    1  A    between atoms: _1  and  _3
REMARK    2  A    between atoms: _3  and  _4
REMARK    3  A    between atoms: _3  and  _6
REMARK    4  A    between atoms: _6  and  _7
REMARK    5  A    between atoms: _7  and  _8
REMARK    6  A    between atoms: _8  and  _9
REMARK    7  A    between atoms: _9  and  _10
REMARK    8  A    between atoms: _14  and  _16
REMARK    9  A    between atoms: _16  and  _17
REMARK   10  A    between atoms: _20  and  _22
REMARK   11  A    between atoms: _22  and  _23
REMARK   12  A    between atoms: _22  and  _25
REMARK   13  A    between atoms: _28  and  _30
REMARK   14  A    between atoms: _30  and  _31
REMARK   15  A    between atoms: _30  and  _33
REMARK   16  A    between atoms: _33  and  _34
REMARK   17  A    between atoms: _36  and  _38
REMARK   18  A    between atoms: _38  and  _39
REMARK   19  A    between atoms: _38  and  _41
REMARK   20  A    between atoms: _41  and  _42
REMARK   21  A    between atoms: _44  and  _46
REMARK   22  A    between atoms: _46  and  _47
REMARK   23  A    between atoms: _46  and  _49
REMARK   24  A    between atoms: _52  and  _54
REMARK   25  A    between atoms: _54  and  _55
REMARK   26  A    between atoms: _54  and  _57
REMARK   27  A    between atoms: _57  and  _58
REMARK   28  A    between atoms: _58  and  _59
REMARK   29  A    between atoms: _59  and  _60
REMARK   30  A    between atoms: _60  and  _61
REMARK   31  A    between atoms: _65  and  _67
REMARK   32  A    between atoms: _67  and  _68
REMARK   33  A    between atoms: _67  and  _70
REMARK   34  A    between atoms: _70  and  _71
REMARK   35  A    between atoms: _73  and  _75
REMARK   36  A    between atoms: _75  and  _76
REMARK   37  A    between atoms: _75  and  _78
REMARK   38  A    between atoms: _78  and  _79
REMARK   39  A    between atoms: _81  and  _83
REMARK   40  A    between atoms: _83  and  _84
REMARK   41  A    between atoms: _87  and  _89
REMARK   42  A    between atoms: _89  and  _90
REMARK   43  A    between atoms: _89  and  _92
REMARK   44  A    between atoms: _92  and  _93
REMARK   45  A    between atoms: _96  and  _98
REMARK   46  A    between atoms: _98  and  _99
REMARK   47  A    between atoms: _98  and  _101
REMARK   48  A    between atoms: _101  and  _102
REMARK   49  A    between atoms: _102  and  _103
REMARK   50  A    between atoms: _103  and  _104
REMARK   51  A    between atoms: _104  and  _105
REMARK   52  A    between atoms: _109  and  _111
REMARK   53  A    between atoms: _111  and  _112
REMARK   54  A    between atoms: _111  and  _114
REMARK   55  A    between atoms: _114  and  _115
REMARK   56  A    between atoms: _118  and  _120
REMARK   57  A    between atoms: _120  and  _121
REMARK   58  A    between atoms: _120  and  _123
REMARK   59  A    between atoms: _123  and  _124
REMARK   60  A    between atoms: _127  and  _129
REMARK   61  A    between atoms: _129  and  _130
REMARK   62  A    between atoms: _132  and  _134
REMARK   63  A    between atoms: _134  and  _135
REMARK   64  A    between atoms: _134  and  _137
REMARK   65  A    between atoms: _137  and  _138
REMARK   66  A    between atoms: _141  and  _143
REMARK   67  A    between atoms: _143  and  _144
REMARK   68  A    between atoms: _143  and  _146
REMARK   69  A    between atoms: _146  and  _147
REMARK   70  A    between atoms: _149  and  _151
REMARK   71  A    between atoms: _151  and  _152
REMARK   72  A    between atoms: _151  and  _154
REMARK   73  A    between atoms: _154  and  _155
REMARK   74  A    between atoms: _158  and  _160
REMARK   75  A    between atoms: _160  and  _161
REMARK   76  A    between atoms: _160  and  _163
REMARK   77  A    between atoms: _166  and  _168
REMARK   78  A    between atoms: _168  and  _169
REMARK   79  A    between atoms: _172  and  _174
REMARK   80  A    between atoms: _174  and  _175
REMARK   81  A    between atoms: _174  and  _177
REMARK   82  A    between atoms: _177  and  _178
REMARK   83  A    between atoms: _180  and  _182
REMARK   84  A    between atoms: _182  and  _183
REMARK   85  A    between atoms: _182  and  _185
REMARK   86  A    between atoms: _185  and  _186
REMARK   87  A    between atoms: _189  and  _191
REMARK   88  A    between atoms: _191  and  _192
REMARK   89  A    between atoms: _191  and  _194
REMARK   90  A    between atoms: _194  and  _195
REMARK   91  A    between atoms: _198  and  _200
REMARK   92  A    between atoms: _200  and  _201
REMARK   93  A    between atoms: _200  and  _203
REMARK   94  A    between atoms: _203  and  _204
REMARK   95  A    between atoms: _209  and  _210
REMARK   96  A    between atoms: _212  and  _214
REMARK   97  A    between atoms: _214  and  _215
REMARK   98  A    between atoms: _214  and  _217
REMARK   99  A    between atoms: _220  and  _222
REMARK  100  A    between atoms: _222  and  _223
REMARK  101  A    between atoms: _222  and  _225
REMARK  102  A    between atoms: _225  and  _226
REMARK  103  A    between atoms: _232  and  _234
REMARK  104  A    between atoms: _234  and  _235
REMARK  105  A    between atoms: _234  and  _237
REMARK  106  A    between atoms: _239  and  _241
REMARK  107  A    between atoms: _241  and  _242
REMARK  108  A    between atoms: _241  and  _244
REMARK  109  A    between atoms: _246  and  _248
REMARK  110  A    between atoms: _248  and  _249
REMARK  111  A    between atoms: _251  and  _253
REMARK  112  A    between atoms: _253  and  _254
REMARK  113  A    between atoms: _253  and  _256
REMARK  114  A    between atoms: _256  and  _257
REMARK  115  A    between atoms: _259  and  _261
REMARK  116  A    between atoms: _261  and  _262
REMARK  117  A    between atoms: _261  and  _264
REMARK  118  A    between atoms: _264  and  _265
REMARK  119  A    between atoms: _271  and  _273
REMARK  120  A    between atoms: _273  and  _274
REMARK  121  A    between atoms: _273  and  _276
REMARK  122  A    between atoms: _276  and  _277
REMARK  123  A    between atoms: _281  and  _282
REMARK  124  A    between atoms: _287  and  _289
REMARK  125  A    between atoms: _289  and  _290
REMARK  126  A    between atoms: _289  and  _292
REMARK  127  A    between atoms: _295  and  _297
REMARK  128  A    between atoms: _297  and  _298
REMARK  129  A    between atoms: _297  and  _300
REMARK  130  A    between atoms: _300  and  _301
REMARK  131  A    between atoms: _303  and  _305
REMARK  132  A    between atoms: _305  and  _306
REMARK  133  A    between atoms: _309  and  _311
REMARK  134  A    between atoms: _311  and  _312
REMARK  135  A    between atoms: _311  and  _314
REMARK  136  A    between atoms: _317  and  _319
REMARK  137  A    between atoms: _319  and  _320
REMARK  138  A    between atoms: _319  and  _322
REMARK  139  A    between atoms: _322  and  _323
REMARK  140  A    between atoms: _325  and  _327
REMARK  141  A    between atoms: _327  and  _328
REMARK  142  A    between atoms: _327  and  _330
REMARK  143  A    between atoms: _330  and  _331
REMARK  144  A    between atoms: _333  and  _335
REMARK  145  A    between atoms: _335  and  _336
REMARK  146  A    between atoms: _335  and  _338
REMARK  147  A    between atoms: _338  and  _339
REMARK  148  A    between atoms: _344  and  _345
REMARK  149  A    between atoms: _348  and  _349
REMARK  150  A    between atoms: _354  and  _356
REMARK  151  A    between atoms: _356  and  _357
REMARK  152  A    between atoms: _356  and  _359
REMARK  153  A    between atoms: _362  and  _364
REMARK  154  A    between atoms: _364  and  _365
REMARK  155  A    between atoms: _364  and  _367
REMARK  156  A    between atoms: _367  and  _368
REMARK  157  A    between atoms: _370  and  _372
REMARK  158  A    between atoms: _372  and  _373
REMARK  159  A    between atoms: _372  and  _375
REMARK  160  A    between atoms: _375  and  _376
REMARK  161  A    between atoms: _382  and  _384
REMARK  162  A    between atoms: _384  and  _385
REMARK  163  A    between atoms: _384  and  _387
REMARK  164  A    between atoms: _387  and  _388
REMARK  165  A    between atoms: _391  and  _393
REMARK  166  A    between atoms: _393  and  _394
REMARK  167  A    between atoms: _393  and  _396
REMARK  168  A    between atoms: _396  and  _397
REMARK  169  A    between atoms: _397  and  _398
REMARK  170  A    between atoms: _398  and  _399
REMARK  171  A    between atoms: _399  and  _400
REMARK  172  A    between atoms: _404  and  _406
REMARK  173  A    between atoms: _406  and  _407
REMARK  174  A    between atoms: _406  and  _409
REMARK  175  A    between atoms: _409  and  _410
REMARK  176  A    between atoms: _415  and  _416
REMARK  177  A    between atoms: _418  and  _420
REMARK  178  A    between atoms: _420  and  _421
REMARK  179  A    between atoms: _420  and  _423
REMARK  180  A    between atoms: _425  and  _427
REMARK  181  A    between atoms: _427  and  _428
REMARK  182  A    between atoms: _427  and  _430
REMARK  183  A    between atoms: _430  and  _431
REMARK  184  A    between atoms: _434  and  _436
REMARK  185  A    between atoms: _436  and  _437
REMARK  186  A    between atoms: _436  and  _439
REMARK  187  A    between atoms: _439  and  _440
REMARK  188  A    between atoms: _446  and  _448
REMARK  189  A    between atoms: _448  and  _449
REMARK  190  A    between atoms: _448  and  _451
REMARK  191  A    between atoms: _454  and  _456
REMARK  192  A    between atoms: _456  and  _457
REMARK  193  A    between atoms: _456  and  _459
REMARK  194  A    between atoms: _459  and  _460
REMARK  195  A    between atoms: _463  and  _465
REMARK  196  A    between atoms: _465  and  _466
REMARK  197  A    between atoms: _465  and  _468
REMARK  198  A    between atoms: _468  and  _469
REMARK  199  A    between atoms: _471  and  _473
REMARK  200  A    between atoms: _473  and  _474
REMARK  201  A    between atoms: _473  and  _476
REMARK  202  A    between atoms: _476  and  _477
REMARK  203  A    between atoms: _480  and  _482
REMARK  204  A    between atoms: _482  and  _483
REMARK  205  A    between atoms: _486  and  _488
REMARK  206  A    between atoms: _488  and  _489
REMARK  207  A    between atoms: _488  and  _491
REMARK  208  A    between atoms: _491  and  _492
REMARK  209  A    between atoms: _495  and  _497
REMARK  210  A    between atoms: _497  and  _498
REMARK  211  A    between atoms: _497  and  _500
REMARK  212  A    between atoms: _500  and  _501
REMARK  213  A    between atoms: _501  and  _502
REMARK                            x       y       z     vdW  Elec       q    Type
REMARK                         _______ _______ _______ _____ _____    ______ ____
ROOT
ATOM      1  O   HOH     1      -3.494 -36.756   2.233  0.00  0.00    +0.000 OA
ENDROOT
TORSDOF 0
REMARK  Name = ../refined-set-2016/4ql1/4ql1_pocket.pdb
REMARK  213 active torsions:
REMARK  status: ('A' for Active; 'I' for Inactive)
REMARK    1  A    between atoms: _1  and  _3
REMARK    2  A    between atoms: _3  and  _4
REMARK    3  A    between atoms: _3  and  _6
REMARK    4  A    between atoms: _6  and  _7
REMARK    5  A    between atoms: _7  and  _8
REMARK    6  A    between atoms: _8  and  _9
REMARK    7  A    between atoms: _9  and  _10
REMARK    8  A    between atoms: _14  and  _16
REMARK    9  A    between atoms: _16  and  _17
REMARK   10  A    between atoms: _20  and  _22
REMARK   11  A    between atoms: _22  and  _23
REMARK   12  A    between atoms: _22  and  _25
REMARK   13  A    between atoms: _28  and  _30
REMARK   14  A    between atoms: _30  and  _31
REMARK   15  A    between atoms: _30  and  _33
REMARK   16  A    between atoms: _33  and  _34
REMARK   17  A    between atoms: _36  and  _38
REMARK   18  A    between atoms: _38  and  _39
REMARK   19  A    between atoms: _38  and  _41
REMARK   20  A    between atoms: _41  and  _42
REMARK   21  A    between atoms: _44  and  _46
REMARK   22  A    between atoms: _46  and  _47
REMARK   23  A    between atoms: _46  and  _49
REMARK   24  A    between atoms: _52  and  _54
REMARK   25  A    between atoms: _54  and  _55
REMARK   26  A    between atoms: _54  and  _57
REMARK   27  A    between atoms: _57  and  _58
REMARK   28  A    between atoms: _58  and  _59
REMARK   29  A    between atoms: _59  and  _60
REMARK   30  A    between atoms: _60  and  _61
REMARK   31  A    between atoms: _65  and  _67
REMARK   32  A    between atoms: _67  and  _68
REMARK   33  A    between atoms: _67  and  _70
REMARK   34  A    between atoms: _70  and  _71
REMARK   35  A    between atoms: _73  and  _75
REMARK   36  A    between atoms: _75  and  _76
REMARK   37  A    between atoms: _75  and  _78
REMARK   38  A    between atoms: _78  and  _79
REMARK   39  A    between atoms: _81  and  _83
REMARK   40  A    between atoms: _83  and  _84
REMARK   41  A    between atoms: _87  and  _89
REMARK   42  A    between atoms: _89  and  _90
REMARK   43  A    between atoms: _89  and  _92
REMARK   44  A    between atoms: _92  and  _93
REMARK   45  A    between atoms: _96  and  _98
REMARK   46  A    between atoms: _98  and  _99
REMARK   47  A    between atoms: _98  and  _101
REMARK   48  A    between atoms: _101  and  _102
REMARK   49  A    between atoms: _102  and  _103
REMARK   50  A    between atoms: _103  and  _104
REMARK   51  A    between atoms: _104  and  _105
REMARK   52  A    between atoms: _109  and  _111
REMARK   53  A    between atoms: _111  and  _112
REMARK   54  A    between atoms: _111  and  _114
REMARK   55  A    between atoms: _114  and  _115
REMARK   56  A    between atoms: _118  and  _120
REMARK   57  A    between atoms: _120  and  _121
REMARK   58  A    between atoms: _120  and  _123
REMARK   59  A    between atoms: _123  and  _124
REMARK   60  A    between atoms: _127  and  _129
REMARK   61  A    between atoms: _129  and  _130
REMARK   62  A    between atoms: _132  and  _134
REMARK   63  A    between atoms: _134  and  _135
REMARK   64  A    between atoms: _134  and  _137
REMARK   65  A    between atoms: _137  and  _138
REMARK   66  A    between atoms: _141  and  _143
REMARK   67  A    between atoms: _143  and  _144
REMARK   68  A    between atoms: _143  and  _146
REMARK   69  A    between atoms: _146  and  _147
REMARK   70  A    between atoms: _149  and  _151
REMARK   71  A    between atoms: _151  and  _152
REMARK   72  A    between atoms: _151  and  _154
REMARK   73  A    between atoms: _154  and  _155
REMARK   74  A    between atoms: _158  and  _160
REMARK   75  A    between atoms: _160  and  _161
REMARK   76  A    between atoms: _160  and  _163
REMARK   77  A    between atoms: _166  and  _168
REMARK   78  A    between atoms: _168  and  _169
REMARK   79  A    between atoms: _172  and  _174
REMARK   80  A    between atoms: _174  and  _175
REMARK   81  A    between atoms: _174  and  _177
REMARK   82  A    between atoms: _177  and  _178
REMARK   83  A    between atoms: _180  and  _182
REMARK   84  A    between atoms: _182  and  _183
REMARK   85  A    between atoms: _182  and  _185
REMARK   86  A    between atoms: _185  and  _186
REMARK   87  A    between atoms: _189  and  _191
REMARK   88  A    between atoms: _191  and  _192
REMARK   89  A    between atoms: _191  and  _194
REMARK   90  A    between atoms: _194  and  _195
REMARK   91  A    between atoms: _198  and  _200
REMARK   92  A    between atoms: _200  and  _201
REMARK   93  A    between atoms: _200  and  _203
REMARK   94  A    between atoms: _203  and  _204
REMARK   95  A    between atoms: _209  and  _210
REMARK   96  A    between atoms: _212  and  _214
REMARK   97  A    between atoms: _214  and  _215
REMARK   98  A    between atoms: _214  and  _217
REMARK   99  A    between atoms: _220  and  _222
REMARK  100  A    between atoms: _222  and  _223
REMARK  101  A    between atoms: _222  and  _225
REMARK  102  A    between atoms: _225  and  _226
REMARK  103  A    between atoms: _232  and  _234
REMARK  104  A    between atoms: _234  and  _235
REMARK  105  A    between atoms: _234  and  _237
REMARK  106  A    between atoms: _239  and  _241
REMARK  107  A    between atoms: _241  and  _242
REMARK  108  A    between atoms: _241  and  _244
REMARK  109  A    between atoms: _246  and  _248
REMARK  110  A    between atoms: _248  and  _249
REMARK  111  A    between atoms: _251  and  _253
REMARK  112  A    between atoms: _253  and  _254
REMARK  113  A    between atoms: _253  and  _256
REMARK  114  A    between atoms: _256  and  _257
REMARK  115  A    between atoms: _259  and  _261
REMARK  116  A    between atoms: _261  and  _262
REMARK  117  A    between atoms: _261  and  _264
REMARK  118  A    between atoms: _264  and  _265
REMARK  119  A    between atoms: _271  and  _273
REMARK  120  A    between atoms: _273  and  _274
REMARK  121  A    between atoms: _273  and  _276
REMARK  122  A    between atoms: _276  and  _277
REMARK  123  A    between atoms: _281  and  _282
REMARK  124  A    between atoms: _287  and  _289
REMARK  125  A    between atoms: _289  and  _290
REMARK  126  A    between atoms: _289  and  _292
REMARK  127  A    between atoms: _295  and  _297
REMARK  128  A    between atoms: _297  and  _298
REMARK  129  A    between atoms: _297  and  _300
REMARK  130  A    between atoms: _300  and  _301
REMARK  131  A    between atoms: _303  and  _305
REMARK  132  A    between atoms: _305  and  _306
REMARK  133  A    between atoms: _309  and  _311
REMARK  134  A    between atoms: _311  and  _312
REMARK  135  A    between atoms: _311  and  _314
REMARK  136  A    between atoms: _317  and  _319
REMARK  137  A    between atoms: _319  and  _320
REMARK  138  A    between atoms: _319  and  _322
REMARK  139  A    between atoms: _322  and  _323
REMARK  140  A    between atoms: _325  and  _327
REMARK  141  A    between atoms: _327  and  _328
REMARK  142  A    between atoms: _327  and  _330
REMARK  143  A    between atoms: _330  and  _331
REMARK  144  A    between atoms: _333  and  _335
REMARK  145  A    between atoms: _335  and  _336
REMARK  146  A    between atoms: _335  and  _338
REMARK  147  A    between atoms: _338  and  _339
REMARK  148  A    between atoms: _344  and  _345
REMARK  149  A    between atoms: _348  and  _349
REMARK  150  A    between atoms: _354  and  _356
REMARK  151  A    between atoms: _356  and  _357
REMARK  152  A    between atoms: _356  and  _359
REMARK  153  A    between atoms: _362  and  _364
REMARK  154  A    between atoms: _364  and  _365
REMARK  155  A    between atoms: _364  and  _367
REMARK  156  A    between atoms: _367  and  _368
REMARK  157  A    between atoms: _370  and  _372
REMARK  158  A    between atoms: _372  and  _373
REMARK  159  A    between atoms: _372  and  _375
REMARK  160  A    between atoms: _375  and  _376
REMARK  161  A    between atoms: _382  and  _384
REMARK  162  A    between atoms: _384  and  _385
REMARK  163  A    between atoms: _384  and  _387
REMARK  164  A    between atoms: _387  and  _388
REMARK  165  A    between atoms: _391  and  _393
REMARK  166  A    between atoms: _393  and  _394
REMARK  167  A    between atoms: _393  and  _396
REMARK  168  A    between atoms: _396  and  _397
REMARK  169  A    between atoms: _397  and  _398
REMARK  170  A    between atoms: _398  and  _399
REMARK  171  A    between atoms: _399  and  _400
REMARK  172  A    between atoms: _404  and  _406
REMARK  173  A    between atoms: _406  and  _407
REMARK  174  A    between atoms: _406  and  _409
REMARK  175  A    between atoms: _409  and  _410
REMARK  176  A    between atoms: _415  and  _416
REMARK  177  A    between atoms: _418  and  _420
REMARK  178  A    between atoms: _420  and  _421
REMARK  179  A    between atoms: _420  and  _423
REMARK  180  A    between atoms: _425  and  _427
REMARK  181  A    between atoms: _427  and  _428
REMARK  182  A    between atoms: _427  and  _430
REMARK  183  A    between atoms: _430  and  _431
REMARK  184  A    between atoms: _434  and  _436
REMARK  185  A    between atoms: _436  and  _437
REMARK  186  A    between atoms: _436  and  _439
REMARK  187  A    between atoms: _439  and  _440
REMARK  188  A    between atoms: _446  and  _448
REMARK  189  A    between atoms: _448  and  _449
REMARK  190  A    between atoms: _448  and  _451
REMARK  191  A    between atoms: _454  and  _456
REMARK  192  A    between atoms: _456  and  _457
REMARK  193  A    between atoms: _456  and  _459
REMARK  194  A    between atoms: _459  and  _460
REMARK  195  A    between atoms: _463  and  _465
REMARK  196  A    between atoms: _465  and  _466
REMARK  197  A    between atoms: _465  and  _468
REMARK  198  A    between atoms: _468  and  _469
REMARK  199  A    between atoms: _471  and  _473
REMARK  200  A    between atoms: _473  and  _474
REMARK  201  A    between atoms: _473  and  _476
REMARK  202  A    between atoms: _476  and  _477
REMARK  203  A    between atoms: _480  and  _482
REMARK  204  A    between atoms: _482  and  _483
REMARK  205  A    between atoms: _486  and  _488
REMARK  206  A    between atoms: _488  and  _489
REMARK  207  A    between atoms: _488  and  _491
REMARK  208  A    between atoms: _491  and  _492
REMARK  209  A    between atoms: _495  and  _497
REMARK  210  A    between atoms: _497  and  _498
REMARK  211  A    between atoms: _497  and  _500
REMARK  212  A    between atoms: _500  and  _501
REMARK  213  A    between atoms: _501  and  _502
REMARK                            x       y       z     vdW  Elec       q    Type
REMARK                         _______ _______ _______ _____ _____    ______ ____
ROOT
ATOM      1  O   HOH     1      -1.401 -35.403   3.182  0.00  0.00    +0.000 OA
ENDROOT
TORSDOF 0
REMARK  Name = ../refined-set-2016/4ql1/4ql1_pocket.pdb
REMARK  213 active torsions:
REMARK  status: ('A' for Active; 'I' for Inactive)
REMARK    1  A    between atoms: _1  and  _3
REMARK    2  A    between atoms: _3  and  _4
REMARK    3  A    between atoms: _3  and  _6
REMARK    4  A    between atoms: _6  and  _7
REMARK    5  A    between atoms: _7  and  _8
REMARK    6  A    between atoms: _8  and  _9
REMARK    7  A    between atoms: _9  and  _10
REMARK    8  A    between atoms: _14  and  _16
REMARK    9  A    between atoms: _16  and  _17
REMARK   10  A    between atoms: _20  and  _22
REMARK   11  A    between atoms: _22  and  _23
REMARK   12  A    between atoms: _22  and  _25
REMARK   13  A    between atoms: _28  and  _30
REMARK   14  A    between atoms: _30  and  _31
REMARK   15  A    between atoms: _30  and  _33
REMARK   16  A    between atoms: _33  and  _34
REMARK   17  A    between atoms: _36  and  _38
REMARK   18  A    between atoms: _38  and  _39
REMARK   19  A    between atoms: _38  and  _41
REMARK   20  A    between atoms: _41  and  _42
REMARK   21  A    between atoms: _44  and  _46
REMARK   22  A    between atoms: _46  and  _47
REMARK   23  A    between atoms: _46  and  _49
REMARK   24  A    between atoms: _52  and  _54
REMARK   25  A    between atoms: _54  and  _55
REMARK   26  A    between atoms: _54  and  _57
REMARK   27  A    between atoms: _57  and  _58
REMARK   28  A    between atoms: _58  and  _59
REMARK   29  A    between atoms: _59  and  _60
REMARK   30  A    between atoms: _60  and  _61
REMARK   31  A    between atoms: _65  and  _67
REMARK   32  A    between atoms: _67  and  _68
REMARK   33  A    between atoms: _67  and  _70
REMARK   34  A    between atoms: _70  and  _71
REMARK   35  A    between atoms: _73  and  _75
REMARK   36  A    between atoms: _75  and  _76
REMARK   37  A    between atoms: _75  and  _78
REMARK   38  A    between atoms: _78  and  _79
REMARK   39  A    between atoms: _81  and  _83
REMARK   40  A    between atoms: _83  and  _84
REMARK   41  A    between atoms: _87  and  _89
REMARK   42  A    between atoms: _89  and  _90
REMARK   43  A    between atoms: _89  and  _92
REMARK   44  A    between atoms: _92  and  _93
REMARK   45  A    between atoms: _96  and  _98
REMARK   46  A    between atoms: _98  and  _99
REMARK   47  A    between atoms: _98  and  _101
REMARK   48  A    between atoms: _101  and  _102
REMARK   49  A    between atoms: _102  and  _103
REMARK   50  A    between atoms: _103  and  _104
REMARK   51  A    between atoms: _104  and  _105
REMARK   52  A    between atoms: _109  and  _111
REMARK   53  A    between atoms: _111  and  _112
REMARK   54  A    between atoms: _111  and  _114
REMARK   55  A    between atoms: _114  and  _115
REMARK   56  A    between atoms: _118  and  _120
REMARK   57  A    between atoms: _120  and  _121
REMARK   58  A    between atoms: _120  and  _123
REMARK   59  A    between atoms: _123  and  _124
REMARK   60  A    between atoms: _127  and  _129
REMARK   61  A    between atoms: _129  and  _130
REMARK   62  A    between atoms: _132  and  _134
REMARK   63  A    between atoms: _134  and  _135
REMARK   64  A    between atoms: _134  and  _137
REMARK   65  A    between atoms: _137  and  _138
REMARK   66  A    between atoms: _141  and  _143
REMARK   67  A    between atoms: _143  and  _144
REMARK   68  A    between atoms: _143  and  _146
REMARK   69  A    between atoms: _146  and  _147
REMARK   70  A    between atoms: _149  and  _151
REMARK   71  A    between atoms: _151  and  _152
REMARK   72  A    between atoms: _151  and  _154
REMARK   73  A    between atoms: _154  and  _155
REMARK   74  A    between atoms: _158  and  _160
REMARK   75  A    between atoms: _160  and  _161
REMARK   76  A    between atoms: _160  and  _163
REMARK   77  A    between atoms: _166  and  _168
REMARK   78  A    between atoms: _168  and  _169
REMARK   79  A    between atoms: _172  and  _174
REMARK   80  A    between atoms: _174  and  _175
REMARK   81  A    between atoms: _174  and  _177
REMARK   82  A    between atoms: _177  and  _178
REMARK   83  A    between atoms: _180  and  _182
REMARK   84  A    between atoms: _182  and  _183
REMARK   85  A    between atoms: _182  and  _185
REMARK   86  A    between atoms: _185  and  _186
REMARK   87  A    between atoms: _189  and  _191
REMARK   88  A    between atoms: _191  and  _192
REMARK   89  A    between atoms: _191  and  _194
REMARK   90  A    between atoms: _194  and  _195
REMARK   91  A    between atoms: _198  and  _200
REMARK   92  A    between atoms: _200  and  _201
REMARK   93  A    between atoms: _200  and  _203
REMARK   94  A    between atoms: _203  and  _204
REMARK   95  A    between atoms: _209  and  _210
REMARK   96  A    between atoms: _212  and  _214
REMARK   97  A    between atoms: _214  and  _215
REMARK   98  A    between atoms: _214  and  _217
REMARK   99  A    between atoms: _220  and  _222
REMARK  100  A    between atoms: _222  and  _223
REMARK  101  A    between atoms: _222  and  _225
REMARK  102  A    between atoms: _225  and  _226
REMARK  103  A    between atoms: _232  and  _234
REMARK  104  A    between atoms: _234  and  _235
REMARK  105  A    between atoms: _234  and  _237
REMARK  106  A    between atoms: _239  and  _241
REMARK  107  A    between atoms: _241  and  _242
REMARK  108  A    between atoms: _241  and  _244
REMARK  109  A    between atoms: _246  and  _248
REMARK  110  A    between atoms: _248  and  _249
REMARK  111  A    between atoms: _251  and  _253
REMARK  112  A    between atoms: _253  and  _254
REMARK  113  A    between atoms: _253  and  _256
REMARK  114  A    between atoms: _256  and  _257
REMARK  115  A    between atoms: _259  and  _261
REMARK  116  A    between atoms: _261  and  _262
REMARK  117  A    between atoms: _261  and  _264
REMARK  118  A    between atoms: _264  and  _265
REMARK  119  A    between atoms: _271  and  _273
REMARK  120  A    between atoms: _273  and  _274
REMARK  121  A    between atoms: _273  and  _276
REMARK  122  A    between atoms: _276  and  _277
REMARK  123  A    between atoms: _281  and  _282
REMARK  124  A    between atoms: _287  and  _289
REMARK  125  A    between atoms: _289  and  _290
REMARK  126  A    between atoms: _289  and  _292
REMARK  127  A    between atoms: _295  and  _297
REMARK  128  A    between atoms: _297  and  _298
REMARK  129  A    between atoms: _297  and  _300
REMARK  130  A    between atoms: _300  and  _301
REMARK  131  A    between atoms: _303  and  _305
REMARK  132  A    between atoms: _305  and  _306
REMARK  133  A    between atoms: _309  and  _311
REMARK  134  A    between atoms: _311  and  _312
REMARK  135  A    between atoms: _311  and  _314
REMARK  136  A    between atoms: _317  and  _319
REMARK  137  A    between atoms: _319  and  _320
REMARK  138  A    between atoms: _319  and  _322
REMARK  139  A    between atoms: _322  and  _323
REMARK  140  A    between atoms: _325  and  _327
REMARK  141  A    between atoms: _327  and  _328
REMARK  142  A    between atoms: _327  and  _330
REMARK  143  A    between atoms: _330  and  _331
REMARK  144  A    between atoms: _333  and  _335
REMARK  145  A    between atoms: _335  and  _336
REMARK  146  A    between atoms: _335  and  _338
REMARK  147  A    between atoms: _338  and  _339
REMARK  148  A    between atoms: _344  and  _345
REMARK  149  A    between atoms: _348  and  _349
REMARK  150  A    between atoms: _354  and  _356
REMARK  151  A    between atoms: _356  and  _357
REMARK  152  A    between atoms: _356  and  _359
REMARK  153  A    between atoms: _362  and  _364
REMARK  154  A    between atoms: _364  and  _365
REMARK  155  A    between atoms: _364  and  _367
REMARK  156  A    between atoms: _367  and  _368
REMARK  157  A    between atoms: _370  and  _372
REMARK  158  A    between atoms: _372  and  _373
REMARK  159  A    between atoms: _372  and  _375
REMARK  160  A    between atoms: _375  and  _376
REMARK  161  A    between atoms: _382  and  _384
REMARK  162  A    between atoms: _384  and  _385
REMARK  163  A    between atoms: _384  and  _387
REMARK  164  A    between atoms: _387  and  _388
REMARK  165  A    between atoms: _391  and  _393
REMARK  166  A    between atoms: _393  and  _394
REMARK  167  A    between atoms: _393  and  _396
REMARK  168  A    between atoms: _396  and  _397
REMARK  169  A    between atoms: _397  and  _398
REMARK  170  A    between atoms: _398  and  _399
REMARK  171  A    between atoms: _399  and  _400
REMARK  172  A    between atoms: _404  and  _406
REMARK  173  A    between atoms: _406  and  _407
REMARK  174  A    between atoms: _406  and  _409
REMARK  175  A    between atoms: _409  and  _410
REMARK  176  A    between atoms: _415  and  _416
REMARK  177  A    between atoms: _418  and  _420
REMARK  178  A    between atoms: _420  and  _421
REMARK  179  A    between atoms: _420  and  _423
REMARK  180  A    between atoms: _425  and  _427
REMARK  181  A    between atoms: _427  and  _428
REMARK  182  A    between atoms: _427  and  _430
REMARK  183  A    between atoms: _430  and  _431
REMARK  184  A    between atoms: _434  and  _436
REMARK  185  A    between atoms: _436  and  _437
REMARK  186  A    between atoms: _436  and  _439
REMARK  187  A    between atoms: _439  and  _440
REMARK  188  A    between atoms: _446  and  _448
REMARK  189  A    between atoms: _448  and  _449
REMARK  190  A    between atoms: _448  and  _451
REMARK  191  A    between atoms: _454  and  _456
REMARK  192  A    between atoms: _456  and  _457
REMARK  193  A    between atoms: _456  and  _459
REMARK  194  A    between atoms: _459  and  _460
REMARK  195  A    between atoms: _463  and  _465
REMARK  196  A    between atoms: _465  and  _466
REMARK  197  A    between atoms: _465  and  _468
REMARK  198  A    between atoms: _468  and  _469
REMARK  199  A    between atoms: _471  and  _473
REMARK  200  A    between atoms: _473  and  _474
REMARK  201  A    between atoms: _473  and  _476
REMARK  202  A    between atoms: _476  and  _477
REMARK  203  A    between atoms: _480  and  _482
REMARK  204  A    between atoms: _482  and  _483
REMARK  205  A    between atoms: _486  and  _488
REMARK  206  A    between atoms: _488  and  _489
REMARK  207  A    between atoms: _488  and  _491
REMARK  208  A    between atoms: _491  and  _492
REMARK  209  A    between atoms: _495  and  _497
REMARK  210  A    between atoms: _497  and  _498
REMARK  211  A    between atoms: _497  and  _500
REMARK  212  A    between atoms: _500  and  _501
REMARK  213  A    between atoms: _501  and  _502
REMARK                            x       y       z     vdW  Elec       q    Type
REMARK                         _______ _______ _______ _____ _____    ______ ____
ROOT
ATOM      1  O   HOH     1     -11.439 -32.057   4.217  0.00  0.00    +0.000 OA
ENDROOT
TORSDOF 0
REMARK  Name = ../refined-set-2016/4ql1/4ql1_pocket.pdb
REMARK  213 active torsions:
REMARK  status: ('A' for Active; 'I' for Inactive)
REMARK    1  A    between atoms: _1  and  _3
REMARK    2  A    between atoms: _3  and  _4
REMARK    3  A    between atoms: _3  and  _6
REMARK    4  A    between atoms: _6  and  _7
REMARK    5  A    between atoms: _7  and  _8
REMARK    6  A    between atoms: _8  and  _9
REMARK    7  A    between atoms: _9  and  _10
REMARK    8  A    between atoms: _14  and  _16
REMARK    9  A    between atoms: _16  and  _17
REMARK   10  A    between atoms: _20  and  _22
REMARK   11  A    between atoms: _22  and  _23
REMARK   12  A    between atoms: _22  and  _25
REMARK   13  A    between atoms: _28  and  _30
REMARK   14  A    between atoms: _30  and  _31
REMARK   15  A    between atoms: _30  and  _33
REMARK   16  A    between atoms: _33  and  _34
REMARK   17  A    between atoms: _36  and  _38
REMARK   18  A    between atoms: _38  and  _39
REMARK   19  A    between atoms: _38  and  _41
REMARK   20  A    between atoms: _41  and  _42
REMARK   21  A    between atoms: _44  and  _46
REMARK   22  A    between atoms: _46  and  _47
REMARK   23  A    between atoms: _46  and  _49
REMARK   24  A    between atoms: _52  and  _54
REMARK   25  A    between atoms: _54  and  _55
REMARK   26  A    between atoms: _54  and  _57
REMARK   27  A    between atoms: _57  and  _58
REMARK   28  A    between atoms: _58  and  _59
REMARK   29  A    between atoms: _59  and  _60
REMARK   30  A    between atoms: _60  and  _61
REMARK   31  A    between atoms: _65  and  _67
REMARK   32  A    between atoms: _67  and  _68
REMARK   33  A    between atoms: _67  and  _70
REMARK   34  A    between atoms: _70  and  _71
REMARK   35  A    between atoms: _73  and  _75
REMARK   36  A    between atoms: _75  and  _76
REMARK   37  A    between atoms: _75  and  _78
REMARK   38  A    between atoms: _78  and  _79
REMARK   39  A    between atoms: _81  and  _83
REMARK   40  A    between atoms: _83  and  _84
REMARK   41  A    between atoms: _87  and  _89
REMARK   42  A    between atoms: _89  and  _90
REMARK   43  A    between atoms: _89  and  _92
REMARK   44  A    between atoms: _92  and  _93
REMARK   45  A    between atoms: _96  and  _98
REMARK   46  A    between atoms: _98  and  _99
REMARK   47  A    between atoms: _98  and  _101
REMARK   48  A    between atoms: _101  and  _102
REMARK   49  A    between atoms: _102  and  _103
REMARK   50  A    between atoms: _103  and  _104
REMARK   51  A    between atoms: _104  and  _105
REMARK   52  A    between atoms: _109  and  _111
REMARK   53  A    between atoms: _111  and  _112
REMARK   54  A    between atoms: _111  and  _114
REMARK   55  A    between atoms: _114  and  _115
REMARK   56  A    between atoms: _118  and  _120
REMARK   57  A    between atoms: _120  and  _121
REMARK   58  A    between atoms: _120  and  _123
REMARK   59  A    between atoms: _123  and  _124
REMARK   60  A    between atoms: _127  and  _129
REMARK   61  A    between atoms: _129  and  _130
REMARK   62  A    between atoms: _132  and  _134
REMARK   63  A    between atoms: _134  and  _135
REMARK   64  A    between atoms: _134  and  _137
REMARK   65  A    between atoms: _137  and  _138
REMARK   66  A    between atoms: _141  and  _143
REMARK   67  A    between atoms: _143  and  _144
REMARK   68  A    between atoms: _143  and  _146
REMARK   69  A    between atoms: _146  and  _147
REMARK   70  A    between atoms: _149  and  _151
REMARK   71  A    between atoms: _151  and  _152
REMARK   72  A    between atoms: _151  and  _154
REMARK   73  A    between atoms: _154  and  _155
REMARK   74  A    between atoms: _158  and  _160
REMARK   75  A    between atoms: _160  and  _161
REMARK   76  A    between atoms: _160  and  _163
REMARK   77  A    between atoms: _166  and  _168
REMARK   78  A    between atoms: _168  and  _169
REMARK   79  A    between atoms: _172  and  _174
REMARK   80  A    between atoms: _174  and  _175
REMARK   81  A    between atoms: _174  and  _177
REMARK   82  A    between atoms: _177  and  _178
REMARK   83  A    between atoms: _180  and  _182
REMARK   84  A    between atoms: _182  and  _183
REMARK   85  A    between atoms: _182  and  _185
REMARK   86  A    between atoms: _185  and  _186
REMARK   87  A    between atoms: _189  and  _191
REMARK   88  A    between atoms: _191  and  _192
REMARK   89  A    between atoms: _191  and  _194
REMARK   90  A    between atoms: _194  and  _195
REMARK   91  A    between atoms: _198  and  _200
REMARK   92  A    between atoms: _200  and  _201
REMARK   93  A    between atoms: _200  and  _203
REMARK   94  A    between atoms: _203  and  _204
REMARK   95  A    between atoms: _209  and  _210
REMARK   96  A    between atoms: _212  and  _214
REMARK   97  A    between atoms: _214  and  _215
REMARK   98  A    between atoms: _214  and  _217
REMARK   99  A    between atoms: _220  and  _222
REMARK  100  A    between atoms: _222  and  _223
REMARK  101  A    between atoms: _222  and  _225
REMARK  102  A    between atoms: _225  and  _226
REMARK  103  A    between atoms: _232  and  _234
REMARK  104  A    between atoms: _234  and  _235
REMARK  105  A    between atoms: _234  and  _237
REMARK  106  A    between atoms: _239  and  _241
REMARK  107  A    between atoms: _241  and  _242
REMARK  108  A    between atoms: _241  and  _244
REMARK  109  A    between atoms: _246  and  _248
REMARK  110  A    between atoms: _248  and  _249
REMARK  111  A    between atoms: _251  and  _253
REMARK  112  A    between atoms: _253  and  _254
REMARK  113  A    between atoms: _253  and  _256
REMARK  114  A    between atoms: _256  and  _257
REMARK  115  A    between atoms: _259  and  _261
REMARK  116  A    between atoms: _261  and  _262
REMARK  117  A    between atoms: _261  and  _264
REMARK  118  A    between atoms: _264  and  _265
REMARK  119  A    between atoms: _271  and  _273
REMARK  120  A    between atoms: _273  and  _274
REMARK  121  A    between atoms: _273  and  _276
REMARK  122  A    between atoms: _276  and  _277
REMARK  123  A    between atoms: _281  and  _282
REMARK  124  A    between atoms: _287  and  _289
REMARK  125  A    between atoms: _289  and  _290
REMARK  126  A    between atoms: _289  and  _292
REMARK  127  A    between atoms: _295  and  _297
REMARK  128  A    between atoms: _297  and  _298
REMARK  129  A    between atoms: _297  and  _300
REMARK  130  A    between atoms: _300  and  _301
REMARK  131  A    between atoms: _303  and  _305
REMARK  132  A    between atoms: _305  and  _306
REMARK  133  A    between atoms: _309  and  _311
REMARK  134  A    between atoms: _311  and  _312
REMARK  135  A    between atoms: _311  and  _314
REMARK  136  A    between atoms: _317  and  _319
REMARK  137  A    between atoms: _319  and  _320
REMARK  138  A    between atoms: _319  and  _322
REMARK  139  A    between atoms: _322  and  _323
REMARK  140  A    between atoms: _325  and  _327
REMARK  141  A    between atoms: _327  and  _328
REMARK  142  A    between atoms: _327  and  _330
REMARK  143  A    between atoms: _330  and  _331
REMARK  144  A    between atoms: _333  and  _335
REMARK  145  A    between atoms: _335  and  _336
REMARK  146  A    between atoms: _335  and  _338
REMARK  147  A    between atoms: _338  and  _339
REMARK  148  A    between atoms: _344  and  _345
REMARK  149  A    between atoms: _348  and  _349
REMARK  150  A    between atoms: _354  and  _356
REMARK  151  A    between atoms: _356  and  _357
REMARK  152  A    between atoms: _356  and  _359
REMARK  153  A    between atoms: _362  and  _364
REMARK  154  A    between atoms: _364  and  _365
REMARK  155  A    between atoms: _364  and  _367
REMARK  156  A    between atoms: _367  and  _368
REMARK  157  A    between atoms: _370  and  _372
REMARK  158  A    between atoms: _372  and  _373
REMARK  159  A    between atoms: _372  and  _375
REMARK  160  A    between atoms: _375  and  _376
REMARK  161  A    between atoms: _382  and  _384
REMARK  162  A    between atoms: _384  and  _385
REMARK  163  A    between atoms: _384  and  _387
REMARK  164  A    between atoms: _387  and  _388
REMARK  165  A    between atoms: _391  and  _393
REMARK  166  A    between atoms: _393  and  _394
REMARK  167  A    between atoms: _393  and  _396
REMARK  168  A    between atoms: _396  and  _397
REMARK  169  A    between atoms: _397  and  _398
REMARK  170  A    between atoms: _398  and  _399
REMARK  171  A    between atoms: _399  and  _400
REMARK  172  A    between atoms: _404  and  _406
REMARK  173  A    between atoms: _406  and  _407
REMARK  174  A    between atoms: _406  and  _409
REMARK  175  A    between atoms: _409  and  _410
REMARK  176  A    between atoms: _415  and  _416
REMARK  177  A    between atoms: _418  and  _420
REMARK  178  A    between atoms: _420  and  _421
REMARK  179  A    between atoms: _420  and  _423
REMARK  180  A    between atoms: _425  and  _427
REMARK  181  A    between atoms: _427  and  _428
REMARK  182  A    between atoms: _427  and  _430
REMARK  183  A    between atoms: _430  and  _431
REMARK  184  A    between atoms: _434  and  _436
REMARK  185  A    between atoms: _436  and  _437
REMARK  186  A    between atoms: _436  and  _439
REMARK  187  A    between atoms: _439  and  _440
REMARK  188  A    between atoms: _446  and  _448
REMARK  189  A    between atoms: _448  and  _449
REMARK  190  A    between atoms: _448  and  _451
REMARK  191  A    between atoms: _454  and  _456
REMARK  192  A    between atoms: _456  and  _457
REMARK  193  A    between atoms: _456  and  _459
REMARK  194  A    between atoms: _459  and  _460
REMARK  195  A    between atoms: _463  and  _465
REMARK  196  A    between atoms: _465  and  _466
REMARK  197  A    between atoms: _465  and  _468
REMARK  198  A    between atoms: _468  and  _469
REMARK  199  A    between atoms: _471  and  _473
REMARK  200  A    between atoms: _473  and  _474
REMARK  201  A    between atoms: _473  and  _476
REMARK  202  A    between atoms: _476  and  _477
REMARK  203  A    between atoms: _480  and  _482
REMARK  204  A    between atoms: _482  and  _483
REMARK  205  A    between atoms: _486  and  _488
REMARK  206  A    between atoms: _488  and  _489
REMARK  207  A    between atoms: _488  and  _491
REMARK  208  A    between atoms: _491  and  _492
REMARK  209  A    between atoms: _495  and  _497
REMARK  210  A    between atoms: _497  and  _498
REMARK  211  A    between atoms: _497  and  _500
REMARK  212  A    between atoms: _500  and  _501
REMARK  213  A    between atoms: _501  and  _502
REMARK                            x       y       z     vdW  Elec       q    Type
REMARK                         _______ _______ _______ _____ _____    ______ ____
ROOT
ATOM      1  O   HOH     1     -10.225 -31.135  -0.717  0.00  0.00    +0.000 OA
ENDROOT
TORSDOF 0
REMARK  Name = ../refined-set-2016/4ql1/4ql1_pocket.pdb
REMARK  213 active torsions:
REMARK  status: ('A' for Active; 'I' for Inactive)
REMARK    1  A    between atoms: _1  and  _3
REMARK    2  A    between atoms: _3  and  _4
REMARK    3  A    between atoms: _3  and  _6
REMARK    4  A    between atoms: _6  and  _7
REMARK    5  A    between atoms: _7  and  _8
REMARK    6  A    between atoms: _8  and  _9
REMARK    7  A    between atoms: _9  and  _10
REMARK    8  A    between atoms: _14  and  _16
REMARK    9  A    between atoms: _16  and  _17
REMARK   10  A    between atoms: _20  and  _22
REMARK   11  A    between atoms: _22  and  _23
REMARK   12  A    between atoms: _22  and  _25
REMARK   13  A    between atoms: _28  and  _30
REMARK   14  A    between atoms: _30  and  _31
REMARK   15  A    between atoms: _30  and  _33
REMARK   16  A    between atoms: _33  and  _34
REMARK   17  A    between atoms: _36  and  _38
REMARK   18  A    between atoms: _38  and  _39
REMARK   19  A    between atoms: _38  and  _41
REMARK   20  A    between atoms: _41  and  _42
REMARK   21  A    between atoms: _44  and  _46
REMARK   22  A    between atoms: _46  and  _47
REMARK   23  A    between atoms: _46  and  _49
REMARK   24  A    between atoms: _52  and  _54
REMARK   25  A    between atoms: _54  and  _55
REMARK   26  A    between atoms: _54  and  _57
REMARK   27  A    between atoms: _57  and  _58
REMARK   28  A    between atoms: _58  and  _59
REMARK   29  A    between atoms: _59  and  _60
REMARK   30  A    between atoms: _60  and  _61
REMARK   31  A    between atoms: _65  and  _67
REMARK   32  A    between atoms: _67  and  _68
REMARK   33  A    between atoms: _67  and  _70
REMARK   34  A    between atoms: _70  and  _71
REMARK   35  A    between atoms: _73  and  _75
REMARK   36  A    between atoms: _75  and  _76
REMARK   37  A    between atoms: _75  and  _78
REMARK   38  A    between atoms: _78  and  _79
REMARK   39  A    between atoms: _81  and  _83
REMARK   40  A    between atoms: _83  and  _84
REMARK   41  A    between atoms: _87  and  _89
REMARK   42  A    between atoms: _89  and  _90
REMARK   43  A    between atoms: _89  and  _92
REMARK   44  A    between atoms: _92  and  _93
REMARK   45  A    between atoms: _96  and  _98
REMARK   46  A    between atoms: _98  and  _99
REMARK   47  A    between atoms: _98  and  _101
REMARK   48  A    between atoms: _101  and  _102
REMARK   49  A    between atoms: _102  and  _103
REMARK   50  A    between atoms: _103  and  _104
REMARK   51  A    between atoms: _104  and  _105
REMARK   52  A    between atoms: _109  and  _111
REMARK   53  A    between atoms: _111  and  _112
REMARK   54  A    between atoms: _111  and  _114
REMARK   55  A    between atoms: _114  and  _115
REMARK   56  A    between atoms: _118  and  _120
REMARK   57  A    between atoms: _120  and  _121
REMARK   58  A    between atoms: _120  and  _123
REMARK   59  A    between atoms: _123  and  _124
REMARK   60  A    between atoms: _127  and  _129
REMARK   61  A    between atoms: _129  and  _130
REMARK   62  A    between atoms: _132  and  _134
REMARK   63  A    between atoms: _134  and  _135
REMARK   64  A    between atoms: _134  and  _137
REMARK   65  A    between atoms: _137  and  _138
REMARK   66  A    between atoms: _141  and  _143
REMARK   67  A    between atoms: _143  and  _144
REMARK   68  A    between atoms: _143  and  _146
REMARK   69  A    between atoms: _146  and  _147
REMARK   70  A    between atoms: _149  and  _151
REMARK   71  A    between atoms: _151  and  _152
REMARK   72  A    between atoms: _151  and  _154
REMARK   73  A    between atoms: _154  and  _155
REMARK   74  A    between atoms: _158  and  _160
REMARK   75  A    between atoms: _160  and  _161
REMARK   76  A    between atoms: _160  and  _163
REMARK   77  A    between atoms: _166  and  _168
REMARK   78  A    between atoms: _168  and  _169
REMARK   79  A    between atoms: _172  and  _174
REMARK   80  A    between atoms: _174  and  _175
REMARK   81  A    between atoms: _174  and  _177
REMARK   82  A    between atoms: _177  and  _178
REMARK   83  A    between atoms: _180  and  _182
REMARK   84  A    between atoms: _182  and  _183
REMARK   85  A    between atoms: _182  and  _185
REMARK   86  A    between atoms: _185  and  _186
REMARK   87  A    between atoms: _189  and  _191
REMARK   88  A    between atoms: _191  and  _192
REMARK   89  A    between atoms: _191  and  _194
REMARK   90  A    between atoms: _194  and  _195
REMARK   91  A    between atoms: _198  and  _200
REMARK   92  A    between atoms: _200  and  _201
REMARK   93  A    between atoms: _200  and  _203
REMARK   94  A    between atoms: _203  and  _204
REMARK   95  A    between atoms: _209  and  _210
REMARK   96  A    between atoms: _212  and  _214
REMARK   97  A    between atoms: _214  and  _215
REMARK   98  A    between atoms: _214  and  _217
REMARK   99  A    between atoms: _220  and  _222
REMARK  100  A    between atoms: _222  and  _223
REMARK  101  A    between atoms: _222  and  _225
REMARK  102  A    between atoms: _225  and  _226
REMARK  103  A    between atoms: _232  and  _234
REMARK  104  A    between atoms: _234  and  _235
REMARK  105  A    between atoms: _234  and  _237
REMARK  106  A    between atoms: _239  and  _241
REMARK  107  A    between atoms: _241  and  _242
REMARK  108  A    between atoms: _241  and  _244
REMARK  109  A    between atoms: _246  and  _248
REMARK  110  A    between atoms: _248  and  _249
REMARK  111  A    between atoms: _251  and  _253
REMARK  112  A    between atoms: _253  and  _254
REMARK  113  A    between atoms: _253  and  _256
REMARK  114  A    between atoms: _256  and  _257
REMARK  115  A    between atoms: _259  and  _261
REMARK  116  A    between atoms: _261  and  _262
REMARK  117  A    between atoms: _261  and  _264
REMARK  118  A    between atoms: _264  and  _265
REMARK  119  A    between atoms: _271  and  _273
REMARK  120  A    between atoms: _273  and  _274
REMARK  121  A    between atoms: _273  and  _276
REMARK  122  A    between atoms: _276  and  _277
REMARK  123  A    between atoms: _281  and  _282
REMARK  124  A    between atoms: _287  and  _289
REMARK  125  A    between atoms: _289  and  _290
REMARK  126  A    between atoms: _289  and  _292
REMARK  127  A    between atoms: _295  and  _297
REMARK  128  A    between atoms: _297  and  _298
REMARK  129  A    between atoms: _297  and  _300
REMARK  130  A    between atoms: _300  and  _301
REMARK  131  A    between atoms: _303  and  _305
REMARK  132  A    between atoms: _305  and  _306
REMARK  133  A    between atoms: _309  and  _311
REMARK  134  A    between atoms: _311  and  _312
REMARK  135  A    between atoms: _311  and  _314
REMARK  136  A    between atoms: _317  and  _319
REMARK  137  A    between atoms: _319  and  _320
REMARK  138  A    between atoms: _319  and  _322
REMARK  139  A    between atoms: _322  and  _323
REMARK  140  A    between atoms: _325  and  _327
REMARK  141  A    between atoms: _327  and  _328
REMARK  142  A    between atoms: _327  and  _330
REMARK  143  A    between atoms: _330  and  _331
REMARK  144  A    between atoms: _333  and  _335
REMARK  145  A    between atoms: _335  and  _336
REMARK  146  A    between atoms: _335  and  _338
REMARK  147  A    between atoms: _338  and  _339
REMARK  148  A    between atoms: _344  and  _345
REMARK  149  A    between atoms: _348  and  _349
REMARK  150  A    between atoms: _354  and  _356
REMARK  151  A    between atoms: _356  and  _357
REMARK  152  A    between atoms: _356  and  _359
REMARK  153  A    between atoms: _362  and  _364
REMARK  154  A    between atoms: _364  and  _365
REMARK  155  A    between atoms: _364  and  _367
REMARK  156  A    between atoms: _367  and  _368
REMARK  157  A    between atoms: _370  and  _372
REMARK  158  A    between atoms: _372  and  _373
REMARK  159  A    between atoms: _372  and  _375
REMARK  160  A    between atoms: _375  and  _376
REMARK  161  A    between atoms: _382  and  _384
REMARK  162  A    between atoms: _384  and  _385
REMARK  163  A    between atoms: _384  and  _387
REMARK  164  A    between atoms: _387  and  _388
REMARK  165  A    between atoms: _391  and  _393
REMARK  166  A    between atoms: _393  and  _394
REMARK  167  A    between atoms: _393  and  _396
REMARK  168  A    between atoms: _396  and  _397
REMARK  169  A    between atoms: _397  and  _398
REMARK  170  A    between atoms: _398  and  _399
REMARK  171  A    between atoms: _399  and  _400
REMARK  172  A    between atoms: _404  and  _406
REMARK  173  A    between atoms: _406  and  _407
REMARK  174  A    between atoms: _406  and  _409
REMARK  175  A    between atoms: _409  and  _410
REMARK  176  A    between atoms: _415  and  _416
REMARK  177  A    between atoms: _418  and  _420
REMARK  178  A    between atoms: _420  and  _421
REMARK  179  A    between atoms: _420  and  _423
REMARK  180  A    between atoms: _425  and  _427
REMARK  181  A    between atoms: _427  and  _428
REMARK  182  A    between atoms: _427  and  _430
REMARK  183  A    between atoms: _430  and  _431
REMARK  184  A    between atoms: _434  and  _436
REMARK  185  A    between atoms: _436  and  _437
REMARK  186  A    between atoms: _436  and  _439
REMARK  187  A    between atoms: _439  and  _440
REMARK  188  A    between atoms: _446  and  _448
REMARK  189  A    between atoms: _448  and  _449
REMARK  190  A    between atoms: _448  and  _451
REMARK  191  A    between atoms: _454  and  _456
REMARK  192  A    between atoms: _456  and  _457
REMARK  193  A    between atoms: _456  and  _459
REMARK  194  A    between atoms: _459  and  _460
REMARK  195  A    between atoms: _463  and  _465
REMARK  196  A    between atoms: _465  and  _466
REMARK  197  A    between atoms: _465  and  _468
REMARK  198  A    between atoms: _468  and  _469
REMARK  199  A    between atoms: _471  and  _473
REMARK  200  A    between atoms: _473  and  _474
REMARK  201  A    between atoms: _473  and  _476
REMARK  202  A    between atoms: _476  and  _477
REMARK  203  A    between atoms: _480  and  _482
REMARK  204  A    between atoms: _482  and  _483
REMARK  205  A    between atoms: _486  and  _488
REMARK  206  A    between atoms: _488  and  _489
REMARK  207  A    between atoms: _488  and  _491
REMARK  208  A    between atoms: _491  and  _492
REMARK  209  A    between atoms: _495  and  _497
REMARK  210  A    between atoms: _497  and  _498
REMARK  211  A    between atoms: _497  and  _500
REMARK  212  A    between atoms: _500  and  _501
REMARK  213  A    between atoms: _501  and  _502
REMARK                            x       y       z     vdW  Elec       q    Type
REMARK                         _______ _______ _______ _____ _____    ______ ____
ROOT
ATOM      1  O   HOH     1     -14.099 -20.610  -7.809  0.00  0.00    +0.000 OA
ENDROOT
TORSDOF 0
REMARK  Name = ../refined-set-2016/4ql1/4ql1_pocket.pdb
REMARK  213 active torsions:
REMARK  status: ('A' for Active; 'I' for Inactive)
REMARK    1  A    between atoms: _1  and  _3
REMARK    2  A    between atoms: _3  and  _4
REMARK    3  A    between atoms: _3  and  _6
REMARK    4  A    between atoms: _6  and  _7
REMARK    5  A    between atoms: _7  and  _8
REMARK    6  A    between atoms: _8  and  _9
REMARK    7  A    between atoms: _9  and  _10
REMARK    8  A    between atoms: _14  and  _16
REMARK    9  A    between atoms: _16  and  _17
REMARK   10  A    between atoms: _20  and  _22
REMARK   11  A    between atoms: _22  and  _23
REMARK   12  A    between atoms: _22  and  _25
REMARK   13  A    between atoms: _28  and  _30
REMARK   14  A    between atoms: _30  and  _31
REMARK   15  A    between atoms: _30  and  _33
REMARK   16  A    between atoms: _33  and  _34
REMARK   17  A    between atoms: _36  and  _38
REMARK   18  A    between atoms: _38  and  _39
REMARK   19  A    between atoms: _38  and  _41
REMARK   20  A    between atoms: _41  and  _42
REMARK   21  A    between atoms: _44  and  _46
REMARK   22  A    between atoms: _46  and  _47
REMARK   23  A    between atoms: _46  and  _49
REMARK   24  A    between atoms: _52  and  _54
REMARK   25  A    between atoms: _54  and  _55
REMARK   26  A    between atoms: _54  and  _57
REMARK   27  A    between atoms: _57  and  _58
REMARK   28  A    between atoms: _58  and  _59
REMARK   29  A    between atoms: _59  and  _60
REMARK   30  A    between atoms: _60  and  _61
REMARK   31  A    between atoms: _65  and  _67
REMARK   32  A    between atoms: _67  and  _68
REMARK   33  A    between atoms: _67  and  _70
REMARK   34  A    between atoms: _70  and  _71
REMARK   35  A    between atoms: _73  and  _75
REMARK   36  A    between atoms: _75  and  _76
REMARK   37  A    between atoms: _75  and  _78
REMARK   38  A    between atoms: _78  and  _79
REMARK   39  A    between atoms: _81  and  _83
REMARK   40  A    between atoms: _83  and  _84
REMARK   41  A    between atoms: _87  and  _89
REMARK   42  A    between atoms: _89  and  _90
REMARK   43  A    between atoms: _89  and  _92
REMARK   44  A    between atoms: _92  and  _93
REMARK   45  A    between atoms: _96  and  _98
REMARK   46  A    between atoms: _98  and  _99
REMARK   47  A    between atoms: _98  and  _101
REMARK   48  A    between atoms: _101  and  _102
REMARK   49  A    between atoms: _102  and  _103
REMARK   50  A    between atoms: _103  and  _104
REMARK   51  A    between atoms: _104  and  _105
REMARK   52  A    between atoms: _109  and  _111
REMARK   53  A    between atoms: _111  and  _112
REMARK   54  A    between atoms: _111  and  _114
REMARK   55  A    between atoms: _114  and  _115
REMARK   56  A    between atoms: _118  and  _120
REMARK   57  A    between atoms: _120  and  _121
REMARK   58  A    between atoms: _120  and  _123
REMARK   59  A    between atoms: _123  and  _124
REMARK   60  A    between atoms: _127  and  _129
REMARK   61  A    between atoms: _129  and  _130
REMARK   62  A    between atoms: _132  and  _134
REMARK   63  A    between atoms: _134  and  _135
REMARK   64  A    between atoms: _134  and  _137
REMARK   65  A    between atoms: _137  and  _138
REMARK   66  A    between atoms: _141  and  _143
REMARK   67  A    between atoms: _143  and  _144
REMARK   68  A    between atoms: _143  and  _146
REMARK   69  A    between atoms: _146  and  _147
REMARK   70  A    between atoms: _149  and  _151
REMARK   71  A    between atoms: _151  and  _152
REMARK   72  A    between atoms: _151  and  _154
REMARK   73  A    between atoms: _154  and  _155
REMARK   74  A    between atoms: _158  and  _160
REMARK   75  A    between atoms: _160  and  _161
REMARK   76  A    between atoms: _160  and  _163
REMARK   77  A    between atoms: _166  and  _168
REMARK   78  A    between atoms: _168  and  _169
REMARK   79  A    between atoms: _172  and  _174
REMARK   80  A    between atoms: _174  and  _175
REMARK   81  A    between atoms: _174  and  _177
REMARK   82  A    between atoms: _177  and  _178
REMARK   83  A    between atoms: _180  and  _182
REMARK   84  A    between atoms: _182  and  _183
REMARK   85  A    between atoms: _182  and  _185
REMARK   86  A    between atoms: _185  and  _186
REMARK   87  A    between atoms: _189  and  _191
REMARK   88  A    between atoms: _191  and  _192
REMARK   89  A    between atoms: _191  and  _194
REMARK   90  A    between atoms: _194  and  _195
REMARK   91  A    between atoms: _198  and  _200
REMARK   92  A    between atoms: _200  and  _201
REMARK   93  A    between atoms: _200  and  _203
REMARK   94  A    between atoms: _203  and  _204
REMARK   95  A    between atoms: _209  and  _210
REMARK   96  A    between atoms: _212  and  _214
REMARK   97  A    between atoms: _214  and  _215
REMARK   98  A    between atoms: _214  and  _217
REMARK   99  A    between atoms: _220  and  _222
REMARK  100  A    between atoms: _222  and  _223
REMARK  101  A    between atoms: _222  and  _225
REMARK  102  A    between atoms: _225  and  _226
REMARK  103  A    between atoms: _232  and  _234
REMARK  104  A    between atoms: _234  and  _235
REMARK  105  A    between atoms: _234  and  _237
REMARK  106  A    between atoms: _239  and  _241
REMARK  107  A    between atoms: _241  and  _242
REMARK  108  A    between atoms: _241  and  _244
REMARK  109  A    between atoms: _246  and  _248
REMARK  110  A    between atoms: _248  and  _249
REMARK  111  A    between atoms: _251  and  _253
REMARK  112  A    between atoms: _253  and  _254
REMARK  113  A    between atoms: _253  and  _256
REMARK  114  A    between atoms: _256  and  _257
REMARK  115  A    between atoms: _259  and  _261
REMARK  116  A    between atoms: _261  and  _262
REMARK  117  A    between atoms: _261  and  _264
REMARK  118  A    between atoms: _264  and  _265
REMARK  119  A    between atoms: _271  and  _273
REMARK  120  A    between atoms: _273  and  _274
REMARK  121  A    between atoms: _273  and  _276
REMARK  122  A    between atoms: _276  and  _277
REMARK  123  A    between atoms: _281  and  _282
REMARK  124  A    between atoms: _287  and  _289
REMARK  125  A    between atoms: _289  and  _290
REMARK  126  A    between atoms: _289  and  _292
REMARK  127  A    between atoms: _295  and  _297
REMARK  128  A    between atoms: _297  and  _298
REMARK  129  A    between atoms: _297  and  _300
REMARK  130  A    between atoms: _300  and  _301
REMARK  131  A    between atoms: _303  and  _305
REMARK  132  A    between atoms: _305  and  _306
REMARK  133  A    between atoms: _309  and  _311
REMARK  134  A    between atoms: _311  and  _312
REMARK  135  A    between atoms: _311  and  _314
REMARK  136  A    between atoms: _317  and  _319
REMARK  137  A    between atoms: _319  and  _320
REMARK  138  A    between atoms: _319  and  _322
REMARK  139  A    between atoms: _322  and  _323
REMARK  140  A    between atoms: _325  and  _327
REMARK  141  A    between atoms: _327  and  _328
REMARK  142  A    between atoms: _327  and  _330
REMARK  143  A    between atoms: _330  and  _331
REMARK  144  A    between atoms: _333  and  _335
REMARK  145  A    between atoms: _335  and  _336
REMARK  146  A    between atoms: _335  and  _338
REMARK  147  A    between atoms: _338  and  _339
REMARK  148  A    between atoms: _344  and  _345
REMARK  149  A    between atoms: _348  and  _349
REMARK  150  A    between atoms: _354  and  _356
REMARK  151  A    between atoms: _356  and  _357
REMARK  152  A    between atoms: _356  and  _359
REMARK  153  A    between atoms: _362  and  _364
REMARK  154  A    between atoms: _364  and  _365
REMARK  155  A    between atoms: _364  and  _367
REMARK  156  A    between atoms: _367  and  _368
REMARK  157  A    between atoms: _370  and  _372
REMARK  158  A    between atoms: _372  and  _373
REMARK  159  A    between atoms: _372  and  _375
REMARK  160  A    between atoms: _375  and  _376
REMARK  161  A    between atoms: _382  and  _384
REMARK  162  A    between atoms: _384  and  _385
REMARK  163  A    between atoms: _384  and  _387
REMARK  164  A    between atoms: _387  and  _388
REMARK  165  A    between atoms: _391  and  _393
REMARK  166  A    between atoms: _393  and  _394
REMARK  167  A    between atoms: _393  and  _396
REMARK  168  A    between atoms: _396  and  _397
REMARK  169  A    between atoms: _397  and  _398
REMARK  170  A    between atoms: _398  and  _399
REMARK  171  A    between atoms: _399  and  _400
REMARK  172  A    between atoms: _404  and  _406
REMARK  173  A    between atoms: _406  and  _407
REMARK  174  A    between atoms: _406  and  _409
REMARK  175  A    between atoms: _409  and  _410
REMARK  176  A    between atoms: _415  and  _416
REMARK  177  A    between atoms: _418  and  _420
REMARK  178  A    between atoms: _420  and  _421
REMARK  179  A    between atoms: _420  and  _423
REMARK  180  A    between atoms: _425  and  _427
REMARK  181  A    between atoms: _427  and  _428
REMARK  182  A    between atoms: _427  and  _430
REMARK  183  A    between atoms: _430  and  _431
REMARK  184  A    between atoms: _434  and  _436
REMARK  185  A    between atoms: _436  and  _437
REMARK  186  A    between atoms: _436  and  _439
REMARK  187  A    between atoms: _439  and  _440
REMARK  188  A    between atoms: _446  and  _448
REMARK  189  A    between atoms: _448  and  _449
REMARK  190  A    between atoms: _448  and  _451
REMARK  191  A    between atoms: _454  and  _456
REMARK  192  A    between atoms: _456  and  _457
REMARK  193  A    between atoms: _456  and  _459
REMARK  194  A    between atoms: _459  and  _460
REMARK  195  A    between atoms: _463  and  _465
REMARK  196  A    between atoms: _465  and  _466
REMARK  197  A    between atoms: _465  and  _468
REMARK  198  A    between atoms: _468  and  _469
REMARK  199  A    between atoms: _471  and  _473
REMARK  200  A    between atoms: _473  and  _474
REMARK  201  A    between atoms: _473  and  _476
REMARK  202  A    between atoms: _476  and  _477
REMARK  203  A    between atoms: _480  and  _482
REMARK  204  A    between atoms: _482  and  _483
REMARK  205  A    between atoms: _486  and  _488
REMARK  206  A    between atoms: _488  and  _489
REMARK  207  A    between atoms: _488  and  _491
REMARK  208  A    between atoms: _491  and  _492
REMARK  209  A    between atoms: _495  and  _497
REMARK  210  A    between atoms: _497  and  _498
REMARK  211  A    between atoms: _497  and  _500
REMARK  212  A    between atoms: _500  and  _501
REMARK  213  A    between atoms: _501  and  _502
REMARK                            x       y       z     vdW  Elec       q    Type
REMARK                         _______ _______ _______ _____ _____    ______ ____
ROOT
ATOM      1  O   HOH     1     -10.200 -28.729  -1.675  0.00  0.00    +0.000 OA
ENDROOT
TORSDOF 0
REMARK  Name = ../refined-set-2016/4ql1/4ql1_pocket.pdb
REMARK  213 active torsions:
REMARK  status: ('A' for Active; 'I' for Inactive)
REMARK    1  A    between atoms: _1  and  _3
REMARK    2  A    between atoms: _3  and  _4
REMARK    3  A    between atoms: _3  and  _6
REMARK    4  A    between atoms: _6  and  _7
REMARK    5  A    between atoms: _7  and  _8
REMARK    6  A    between atoms: _8  and  _9
REMARK    7  A    between atoms: _9  and  _10
REMARK    8  A    between atoms: _14  and  _16
REMARK    9  A    between atoms: _16  and  _17
REMARK   10  A    between atoms: _20  and  _22
REMARK   11  A    between atoms: _22  and  _23
REMARK   12  A    between atoms: _22  and  _25
REMARK   13  A    between atoms: _28  and  _30
REMARK   14  A    between atoms: _30  and  _31
REMARK   15  A    between atoms: _30  and  _33
REMARK   16  A    between atoms: _33  and  _34
REMARK   17  A    between atoms: _36  and  _38
REMARK   18  A    between atoms: _38  and  _39
REMARK   19  A    between atoms: _38  and  _41
REMARK   20  A    between atoms: _41  and  _42
REMARK   21  A    between atoms: _44  and  _46
REMARK   22  A    between atoms: _46  and  _47
REMARK   23  A    between atoms: _46  and  _49
REMARK   24  A    between atoms: _52  and  _54
REMARK   25  A    between atoms: _54  and  _55
REMARK   26  A    between atoms: _54  and  _57
REMARK   27  A    between atoms: _57  and  _58
REMARK   28  A    between atoms: _58  and  _59
REMARK   29  A    between atoms: _59  and  _60
REMARK   30  A    between atoms: _60  and  _61
REMARK   31  A    between atoms: _65  and  _67
REMARK   32  A    between atoms: _67  and  _68
REMARK   33  A    between atoms: _67  and  _70
REMARK   34  A    between atoms: _70  and  _71
REMARK   35  A    between atoms: _73  and  _75
REMARK   36  A    between atoms: _75  and  _76
REMARK   37  A    between atoms: _75  and  _78
REMARK   38  A    between atoms: _78  and  _79
REMARK   39  A    between atoms: _81  and  _83
REMARK   40  A    between atoms: _83  and  _84
REMARK   41  A    between atoms: _87  and  _89
REMARK   42  A    between atoms: _89  and  _90
REMARK   43  A    between atoms: _89  and  _92
REMARK   44  A    between atoms: _92  and  _93
REMARK   45  A    between atoms: _96  and  _98
REMARK   46  A    between atoms: _98  and  _99
REMARK   47  A    between atoms: _98  and  _101
REMARK   48  A    between atoms: _101  and  _102
REMARK   49  A    between atoms: _102  and  _103
REMARK   50  A    between atoms: _103  and  _104
REMARK   51  A    between atoms: _104  and  _105
REMARK   52  A    between atoms: _109  and  _111
REMARK   53  A    between atoms: _111  and  _112
REMARK   54  A    between atoms: _111  and  _114
REMARK   55  A    between atoms: _114  and  _115
REMARK   56  A    between atoms: _118  and  _120
REMARK   57  A    between atoms: _120  and  _121
REMARK   58  A    between atoms: _120  and  _123
REMARK   59  A    between atoms: _123  and  _124
REMARK   60  A    between atoms: _127  and  _129
REMARK   61  A    between atoms: _129  and  _130
REMARK   62  A    between atoms: _132  and  _134
REMARK   63  A    between atoms: _134  and  _135
REMARK   64  A    between atoms: _134  and  _137
REMARK   65  A    between atoms: _137  and  _138
REMARK   66  A    between atoms: _141  and  _143
REMARK   67  A    between atoms: _143  and  _144
REMARK   68  A    between atoms: _143  and  _146
REMARK   69  A    between atoms: _146  and  _147
REMARK   70  A    between atoms: _149  and  _151
REMARK   71  A    between atoms: _151  and  _152
REMARK   72  A    between atoms: _151  and  _154
REMARK   73  A    between atoms: _154  and  _155
REMARK   74  A    between atoms: _158  and  _160
REMARK   75  A    between atoms: _160  and  _161
REMARK   76  A    between atoms: _160  and  _163
REMARK   77  A    between atoms: _166  and  _168
REMARK   78  A    between atoms: _168  and  _169
REMARK   79  A    between atoms: _172  and  _174
REMARK   80  A    between atoms: _174  and  _175
REMARK   81  A    between atoms: _174  and  _177
REMARK   82  A    between atoms: _177  and  _178
REMARK   83  A    between atoms: _180  and  _182
REMARK   84  A    between atoms: _182  and  _183
REMARK   85  A    between atoms: _182  and  _185
REMARK   86  A    between atoms: _185  and  _186
REMARK   87  A    between atoms: _189  and  _191
REMARK   88  A    between atoms: _191  and  _192
REMARK   89  A    between atoms: _191  and  _194
REMARK   90  A    between atoms: _194  and  _195
REMARK   91  A    between atoms: _198  and  _200
REMARK   92  A    between atoms: _200  and  _201
REMARK   93  A    between atoms: _200  and  _203
REMARK   94  A    between atoms: _203  and  _204
REMARK   95  A    between atoms: _209  and  _210
REMARK   96  A    between atoms: _212  and  _214
REMARK   97  A    between atoms: _214  and  _215
REMARK   98  A    between atoms: _214  and  _217
REMARK   99  A    between atoms: _220  and  _222
REMARK  100  A    between atoms: _222  and  _223
REMARK  101  A    between atoms: _222  and  _225
REMARK  102  A    between atoms: _225  and  _226
REMARK  103  A    between atoms: _232  and  _234
REMARK  104  A    between atoms: _234  and  _235
REMARK  105  A    between atoms: _234  and  _237
REMARK  106  A    between atoms: _239  and  _241
REMARK  107  A    between atoms: _241  and  _242
REMARK  108  A    between atoms: _241  and  _244
REMARK  109  A    between atoms: _246  and  _248
REMARK  110  A    between atoms: _248  and  _249
REMARK  111  A    between atoms: _251  and  _253
REMARK  112  A    between atoms: _253  and  _254
REMARK  113  A    between atoms: _253  and  _256
REMARK  114  A    between atoms: _256  and  _257
REMARK  115  A    between atoms: _259  and  _261
REMARK  116  A    between atoms: _261  and  _262
REMARK  117  A    between atoms: _261  and  _264
REMARK  118  A    between atoms: _264  and  _265
REMARK  119  A    between atoms: _271  and  _273
REMARK  120  A    between atoms: _273  and  _274
REMARK  121  A    between atoms: _273  and  _276
REMARK  122  A    between atoms: _276  and  _277
REMARK  123  A    between atoms: _281  and  _282
REMARK  124  A    between atoms: _287  and  _289
REMARK  125  A    between atoms: _289  and  _290
REMARK  126  A    between atoms: _289  and  _292
REMARK  127  A    between atoms: _295  and  _297
REMARK  128  A    between atoms: _297  and  _298
REMARK  129  A    between atoms: _297  and  _300
REMARK  130  A    between atoms: _300  and  _301
REMARK  131  A    between atoms: _303  and  _305
REMARK  132  A    between atoms: _305  and  _306
REMARK  133  A    between atoms: _309  and  _311
REMARK  134  A    between atoms: _311  and  _312
REMARK  135  A    between atoms: _311  and  _314
REMARK  136  A    between atoms: _317  and  _319
REMARK  137  A    between atoms: _319  and  _320
REMARK  138  A    between atoms: _319  and  _322
REMARK  139  A    between atoms: _322  and  _323
REMARK  140  A    between atoms: _325  and  _327
REMARK  141  A    between atoms: _327  and  _328
REMARK  142  A    between atoms: _327  and  _330
REMARK  143  A    between atoms: _330  and  _331
REMARK  144  A    between atoms: _333  and  _335
REMARK  145  A    between atoms: _335  and  _336
REMARK  146  A    between atoms: _335  and  _338
REMARK  147  A    between atoms: _338  and  _339
REMARK  148  A    between atoms: _344  and  _345
REMARK  149  A    between atoms: _348  and  _349
REMARK  150  A    between atoms: _354  and  _356
REMARK  151  A    between atoms: _356  and  _357
REMARK  152  A    between atoms: _356  and  _359
REMARK  153  A    between atoms: _362  and  _364
REMARK  154  A    between atoms: _364  and  _365
REMARK  155  A    between atoms: _364  and  _367
REMARK  156  A    between atoms: _367  and  _368
REMARK  157  A    between atoms: _370  and  _372
REMARK  158  A    between atoms: _372  and  _373
REMARK  159  A    between atoms: _372  and  _375
REMARK  160  A    between atoms: _375  and  _376
REMARK  161  A    between atoms: _382  and  _384
REMARK  162  A    between atoms: _384  and  _385
REMARK  163  A    between atoms: _384  and  _387
REMARK  164  A    between atoms: _387  and  _388
REMARK  165  A    between atoms: _391  and  _393
REMARK  166  A    between atoms: _393  and  _394
REMARK  167  A    between atoms: _393  and  _396
REMARK  168  A    between atoms: _396  and  _397
REMARK  169  A    between atoms: _397  and  _398
REMARK  170  A    between atoms: _398  and  _399
REMARK  171  A    between atoms: _399  and  _400
REMARK  172  A    between atoms: _404  and  _406
REMARK  173  A    between atoms: _406  and  _407
REMARK  174  A    between atoms: _406  and  _409
REMARK  175  A    between atoms: _409  and  _410
REMARK  176  A    between atoms: _415  and  _416
REMARK  177  A    between atoms: _418  and  _420
REMARK  178  A    between atoms: _420  and  _421
REMARK  179  A    between atoms: _420  and  _423
REMARK  180  A    between atoms: _425  and  _427
REMARK  181  A    between atoms: _427  and  _428
REMARK  182  A    between atoms: _427  and  _430
REMARK  183  A    between atoms: _430  and  _431
REMARK  184  A    between atoms: _434  and  _436
REMARK  185  A    between atoms: _436  and  _437
REMARK  186  A    between atoms: _436  and  _439
REMARK  187  A    between atoms: _439  and  _440
REMARK  188  A    between atoms: _446  and  _448
REMARK  189  A    between atoms: _448  and  _449
REMARK  190  A    between atoms: _448  and  _451
REMARK  191  A    between atoms: _454  and  _456
REMARK  192  A    between atoms: _456  and  _457
REMARK  193  A    between atoms: _456  and  _459
REMARK  194  A    between atoms: _459  and  _460
REMARK  195  A    between atoms: _463  and  _465
REMARK  196  A    between atoms: _465  and  _466
REMARK  197  A    between atoms: _465  and  _468
REMARK  198  A    between atoms: _468  and  _469
REMARK  199  A    between atoms: _471  and  _473
REMARK  200  A    between atoms: _473  and  _474
REMARK  201  A    between atoms: _473  and  _476
REMARK  202  A    between atoms: _476  and  _477
REMARK  203  A    between atoms: _480  and  _482
REMARK  204  A    between atoms: _482  and  _483
REMARK  205  A    between atoms: _486  and  _488
REMARK  206  A    between atoms: _488  and  _489
REMARK  207  A    between atoms: _488  and  _491
REMARK  208  A    between atoms: _491  and  _492
REMARK  209  A    between atoms: _495  and  _497
REMARK  210  A    between atoms: _497  and  _498
REMARK  211  A    between atoms: _497  and  _500
REMARK  212  A    between atoms: _500  and  _501
REMARK  213  A    between atoms: _501  and  _502
REMARK                            x       y       z     vdW  Elec       q    Type
REMARK                         _______ _______ _______ _____ _____    ______ ____
ROOT
ATOM      1  O   HOH     1      -5.019 -32.398   1.052  0.00  0.00    +0.000 OA
ENDROOT
TORSDOF 0
REMARK  Name = ../refined-set-2016/4ql1/4ql1_pocket.pdb
REMARK  213 active torsions:
REMARK  status: ('A' for Active; 'I' for Inactive)
REMARK    1  A    between atoms: _1  and  _3
REMARK    2  A    between atoms: _3  and  _4
REMARK    3  A    between atoms: _3  and  _6
REMARK    4  A    between atoms: _6  and  _7
REMARK    5  A    between atoms: _7  and  _8
REMARK    6  A    between atoms: _8  and  _9
REMARK    7  A    between atoms: _9  and  _10
REMARK    8  A    between atoms: _14  and  _16
REMARK    9  A    between atoms: _16  and  _17
REMARK   10  A    between atoms: _20  and  _22
REMARK   11  A    between atoms: _22  and  _23
REMARK   12  A    between atoms: _22  and  _25
REMARK   13  A    between atoms: _28  and  _30
REMARK   14  A    between atoms: _30  and  _31
REMARK   15  A    between atoms: _30  and  _33
REMARK   16  A    between atoms: _33  and  _34
REMARK   17  A    between atoms: _36  and  _38
REMARK   18  A    between atoms: _38  and  _39
REMARK   19  A    between atoms: _38  and  _41
REMARK   20  A    between atoms: _41  and  _42
REMARK   21  A    between atoms: _44  and  _46
REMARK   22  A    between atoms: _46  and  _47
REMARK   23  A    between atoms: _46  and  _49
REMARK   24  A    between atoms: _52  and  _54
REMARK   25  A    between atoms: _54  and  _55
REMARK   26  A    between atoms: _54  and  _57
REMARK   27  A    between atoms: _57  and  _58
REMARK   28  A    between atoms: _58  and  _59
REMARK   29  A    between atoms: _59  and  _60
REMARK   30  A    between atoms: _60  and  _61
REMARK   31  A    between atoms: _65  and  _67
REMARK   32  A    between atoms: _67  and  _68
REMARK   33  A    between atoms: _67  and  _70
REMARK   34  A    between atoms: _70  and  _71
REMARK   35  A    between atoms: _73  and  _75
REMARK   36  A    between atoms: _75  and  _76
REMARK   37  A    between atoms: _75  and  _78
REMARK   38  A    between atoms: _78  and  _79
REMARK   39  A    between atoms: _81  and  _83
REMARK   40  A    between atoms: _83  and  _84
REMARK   41  A    between atoms: _87  and  _89
REMARK   42  A    between atoms: _89  and  _90
REMARK   43  A    between atoms: _89  and  _92
REMARK   44  A    between atoms: _92  and  _93
REMARK   45  A    between atoms: _96  and  _98
REMARK   46  A    between atoms: _98  and  _99
REMARK   47  A    between atoms: _98  and  _101
REMARK   48  A    between atoms: _101  and  _102
REMARK   49  A    between atoms: _102  and  _103
REMARK   50  A    between atoms: _103  and  _104
REMARK   51  A    between atoms: _104  and  _105
REMARK   52  A    between atoms: _109  and  _111
REMARK   53  A    between atoms: _111  and  _112
REMARK   54  A    between atoms: _111  and  _114
REMARK   55  A    between atoms: _114  and  _115
REMARK   56  A    between atoms: _118  and  _120
REMARK   57  A    between atoms: _120  and  _121
REMARK   58  A    between atoms: _120  and  _123
REMARK   59  A    between atoms: _123  and  _124
REMARK   60  A    between atoms: _127  and  _129
REMARK   61  A    between atoms: _129  and  _130
REMARK   62  A    between atoms: _132  and  _134
REMARK   63  A    between atoms: _134  and  _135
REMARK   64  A    between atoms: _134  and  _137
REMARK   65  A    between atoms: _137  and  _138
REMARK   66  A    between atoms: _141  and  _143
REMARK   67  A    between atoms: _143  and  _144
REMARK   68  A    between atoms: _143  and  _146
REMARK   69  A    between atoms: _146  and  _147
REMARK   70  A    between atoms: _149  and  _151
REMARK   71  A    between atoms: _151  and  _152
REMARK   72  A    between atoms: _151  and  _154
REMARK   73  A    between atoms: _154  and  _155
REMARK   74  A    between atoms: _158  and  _160
REMARK   75  A    between atoms: _160  and  _161
REMARK   76  A    between atoms: _160  and  _163
REMARK   77  A    between atoms: _166  and  _168
REMARK   78  A    between atoms: _168  and  _169
REMARK   79  A    between atoms: _172  and  _174
REMARK   80  A    between atoms: _174  and  _175
REMARK   81  A    between atoms: _174  and  _177
REMARK   82  A    between atoms: _177  and  _178
REMARK   83  A    between atoms: _180  and  _182
REMARK   84  A    between atoms: _182  and  _183
REMARK   85  A    between atoms: _182  and  _185
REMARK   86  A    between atoms: _185  and  _186
REMARK   87  A    between atoms: _189  and  _191
REMARK   88  A    between atoms: _191  and  _192
REMARK   89  A    between atoms: _191  and  _194
REMARK   90  A    between atoms: _194  and  _195
REMARK   91  A    between atoms: _198  and  _200
REMARK   92  A    between atoms: _200  and  _201
REMARK   93  A    between atoms: _200  and  _203
REMARK   94  A    between atoms: _203  and  _204
REMARK   95  A    between atoms: _209  and  _210
REMARK   96  A    between atoms: _212  and  _214
REMARK   97  A    between atoms: _214  and  _215
REMARK   98  A    between atoms: _214  and  _217
REMARK   99  A    between atoms: _220  and  _222
REMARK  100  A    between atoms: _222  and  _223
REMARK  101  A    between atoms: _222  and  _225
REMARK  102  A    between atoms: _225  and  _226
REMARK  103  A    between atoms: _232  and  _234
REMARK  104  A    between atoms: _234  and  _235
REMARK  105  A    between atoms: _234  and  _237
REMARK  106  A    between atoms: _239  and  _241
REMARK  107  A    between atoms: _241  and  _242
REMARK  108  A    between atoms: _241  and  _244
REMARK  109  A    between atoms: _246  and  _248
REMARK  110  A    between atoms: _248  and  _249
REMARK  111  A    between atoms: _251  and  _253
REMARK  112  A    between atoms: _253  and  _254
REMARK  113  A    between atoms: _253  and  _256
REMARK  114  A    between atoms: _256  and  _257
REMARK  115  A    between atoms: _259  and  _261
REMARK  116  A    between atoms: _261  and  _262
REMARK  117  A    between atoms: _261  and  _264
REMARK  118  A    between atoms: _264  and  _265
REMARK  119  A    between atoms: _271  and  _273
REMARK  120  A    between atoms: _273  and  _274
REMARK  121  A    between atoms: _273  and  _276
REMARK  122  A    between atoms: _276  and  _277
REMARK  123  A    between atoms: _281  and  _282
REMARK  124  A    between atoms: _287  and  _289
REMARK  125  A    between atoms: _289  and  _290
REMARK  126  A    between atoms: _289  and  _292
REMARK  127  A    between atoms: _295  and  _297
REMARK  128  A    between atoms: _297  and  _298
REMARK  129  A    between atoms: _297  and  _300
REMARK  130  A    between atoms: _300  and  _301
REMARK  131  A    between atoms: _303  and  _305
REMARK  132  A    between atoms: _305  and  _306
REMARK  133  A    between atoms: _309  and  _311
REMARK  134  A    between atoms: _311  and  _312
REMARK  135  A    between atoms: _311  and  _314
REMARK  136  A    between atoms: _317  and  _319
REMARK  137  A    between atoms: _319  and  _320
REMARK  138  A    between atoms: _319  and  _322
REMARK  139  A    between atoms: _322  and  _323
REMARK  140  A    between atoms: _325  and  _327
REMARK  141  A    between atoms: _327  and  _328
REMARK  142  A    between atoms: _327  and  _330
REMARK  143  A    between atoms: _330  and  _331
REMARK  144  A    between atoms: _333  and  _335
REMARK  145  A    between atoms: _335  and  _336
REMARK  146  A    between atoms: _335  and  _338
REMARK  147  A    between atoms: _338  and  _339
REMARK  148  A    between atoms: _344  and  _345
REMARK  149  A    between atoms: _348  and  _349
REMARK  150  A    between atoms: _354  and  _356
REMARK  151  A    between atoms: _356  and  _357
REMARK  152  A    between atoms: _356  and  _359
REMARK  153  A    between atoms: _362  and  _364
REMARK  154  A    between atoms: _364  and  _365
REMARK  155  A    between atoms: _364  and  _367
REMARK  156  A    between atoms: _367  and  _368
REMARK  157  A    between atoms: _370  and  _372
REMARK  158  A    between atoms: _372  and  _373
REMARK  159  A    between atoms: _372  and  _375
REMARK  160  A    between atoms: _375  and  _376
REMARK  161  A    between atoms: _382  and  _384
REMARK  162  A    between atoms: _384  and  _385
REMARK  163  A    between atoms: _384  and  _387
REMARK  164  A    between atoms: _387  and  _388
REMARK  165  A    between atoms: _391  and  _393
REMARK  166  A    between atoms: _393  and  _394
REMARK  167  A    between atoms: _393  and  _396
REMARK  168  A    between atoms: _396  and  _397
REMARK  169  A    between atoms: _397  and  _398
REMARK  170  A    between atoms: _398  and  _399
REMARK  171  A    between atoms: _399  and  _400
REMARK  172  A    between atoms: _404  and  _406
REMARK  173  A    between atoms: _406  and  _407
REMARK  174  A    between atoms: _406  and  _409
REMARK  175  A    between atoms: _409  and  _410
REMARK  176  A    between atoms: _415  and  _416
REMARK  177  A    between atoms: _418  and  _420
REMARK  178  A    between atoms: _420  and  _421
REMARK  179  A    between atoms: _420  and  _423
REMARK  180  A    between atoms: _425  and  _427
REMARK  181  A    between atoms: _427  and  _428
REMARK  182  A    between atoms: _427  and  _430
REMARK  183  A    between atoms: _430  and  _431
REMARK  184  A    between atoms: _434  and  _436
REMARK  185  A    between atoms: _436  and  _437
REMARK  186  A    between atoms: _436  and  _439
REMARK  187  A    between atoms: _439  and  _440
REMARK  188  A    between atoms: _446  and  _448
REMARK  189  A    between atoms: _448  and  _449
REMARK  190  A    between atoms: _448  and  _451
REMARK  191  A    between atoms: _454  and  _456
REMARK  192  A    between atoms: _456  and  _457
REMARK  193  A    between atoms: _456  and  _459
REMARK  194  A    between atoms: _459  and  _460
REMARK  195  A    between atoms: _463  and  _465
REMARK  196  A    between atoms: _465  and  _466
REMARK  197  A    between atoms: _465  and  _468
REMARK  198  A    between atoms: _468  and  _469
REMARK  199  A    between atoms: _471  and  _473
REMARK  200  A    between atoms: _473  and  _474
REMARK  201  A    between atoms: _473  and  _476
REMARK  202  A    between atoms: _476  and  _477
REMARK  203  A    between atoms: _480  and  _482
REMARK  204  A    between atoms: _482  and  _483
REMARK  205  A    between atoms: _486  and  _488
REMARK  206  A    between atoms: _488  and  _489
REMARK  207  A    between atoms: _488  and  _491
REMARK  208  A    between atoms: _491  and  _492
REMARK  209  A    between atoms: _495  and  _497
REMARK  210  A    between atoms: _497  and  _498
REMARK  211  A    between atoms: _497  and  _500
REMARK  212  A    between atoms: _500  and  _501
REMARK  213  A    between atoms: _501  and  _502
REMARK                            x       y       z     vdW  Elec       q    Type
REMARK                         _______ _______ _______ _____ _____    ______ ____
ROOT
ATOM      1  O   HOH     1      -3.205 -34.051   1.753  0.00  0.00    +0.000 OA
ENDROOT
TORSDOF 0
