REMARK  Name = ../refined-set-2016/3czv/3czv_pocket.pdb
REMARK  144 active torsions:
REMARK  status: ('A' for Active; 'I' for Inactive)
REMARK    1  A    between atoms: _1  and  _3
REMARK    2  A    between atoms: _3  and  _4
REMARK    3  A    between atoms: _3  and  _6
REMARK    4  A    between atoms: _6  and  _7
REMARK    5  A    between atoms: _17  and  _19
REMARK    6  A    between atoms: _19  and  _20
REMARK    7  A    between atoms: _19  and  _22
REMARK    8  A    between atoms: _22  and  _23
REMARK    9  A    between atoms: _28  and  _29
REMARK   10  A    between atoms: _31  and  _33
REMARK   11  A    between atoms: _33  and  _34
REMARK   12  A    between atoms: _33  and  _36
REMARK   13  A    between atoms: _36  and  _37
REMARK   14  A    between atoms: _40  and  _41
REMARK   15  A    between atoms: _46  and  _48
REMARK   16  A    between atoms: _48  and  _49
REMARK   17  A    between atoms: _48  and  _51
REMARK   18  A    between atoms: _51  and  _52
REMARK   19  A    between atoms: _54  and  _56
REMARK   20  A    between atoms: _56  and  _57
REMARK   21  A    between atoms: _56  and  _59
REMARK   22  A    between atoms: _59  and  _60
REMARK   23  A    between atoms: _65  and  _67
REMARK   24  A    between atoms: _67  and  _68
REMARK   25  A    between atoms: _67  and  _70
REMARK   26  A    between atoms: _70  and  _71
REMARK   27  A    between atoms: _74  and  _76
REMARK   28  A    between atoms: _76  and  _77
REMARK   29  A    between atoms: _76  and  _79
REMARK   30  A    between atoms: _79  and  _80
REMARK   31  A    between atoms: _80  and  _81
REMARK   32  A    between atoms: _81  and  _82
REMARK   33  A    between atoms: _91  and  _93
REMARK   34  A    between atoms: _93  and  _94
REMARK   35  A    between atoms: _93  and  _96
REMARK   36  A    between atoms: _96  and  _97
REMARK   37  A    between atoms: _97  and  _98
REMARK   38  A    between atoms: _103  and  _105
REMARK   39  A    between atoms: _105  and  _106
REMARK   40  A    between atoms: _105  and  _108
REMARK   41  A    between atoms: _111  and  _113
REMARK   42  A    between atoms: _124  and  _127
REMARK   43  A    between atoms: _127  and  _128
REMARK   44  A    between atoms: _133  and  _134
REMARK   45  A    between atoms: _142  and  _144
REMARK   46  A    between atoms: _144  and  _145
REMARK   47  A    between atoms: _144  and  _147
REMARK   48  A    between atoms: _147  and  _148
REMARK   49  A    between atoms: _148  and  _149
REMARK   50  A    between atoms: _152  and  _154
REMARK   51  A    between atoms: _154  and  _155
REMARK   52  A    between atoms: _154  and  _157
REMARK   53  A    between atoms: _157  and  _158
REMARK   54  A    between atoms: _163  and  _165
REMARK   55  A    between atoms: _165  and  _166
REMARK   56  A    between atoms: _165  and  _168
REMARK   57  A    between atoms: _168  and  _169
REMARK   58  A    between atoms: _169  and  _170
REMARK   59  A    between atoms: _173  and  _175
REMARK   60  A    between atoms: _175  and  _176
REMARK   61  A    between atoms: _175  and  _178
REMARK   62  A    between atoms: _178  and  _179
REMARK   63  A    between atoms: _182  and  _184
REMARK   64  A    between atoms: _184  and  _185
REMARK   65  A    between atoms: _184  and  _187
REMARK   66  A    between atoms: _187  and  _188
REMARK   67  A    between atoms: _189  and  ZN_401
REMARK   68  A    between atoms: _193  and  _195
REMARK   69  A    between atoms: _195  and  _196
REMARK   70  A    between atoms: _195  and  _198
REMARK   71  A    between atoms: _201  and  _203
REMARK   72  A    between atoms: _203  and  _204
REMARK   73  A    between atoms: _203  and  _206
REMARK   74  A    between atoms: _209  and  _211
REMARK   75  A    between atoms: _211  and  _212
REMARK   76  A    between atoms: _211  and  _214
REMARK   77  A    between atoms: _214  and  _215
REMARK   78  A    between atoms: _220  and  _222
REMARK   79  A    between atoms: _222  and  _223
REMARK   80  A    between atoms: _222  and  _225
REMARK   81  A    between atoms: _225  and  _226
REMARK   82  A    between atoms: _232  and  _234
REMARK   83  A    between atoms: _234  and  _235
REMARK   84  A    between atoms: _238  and  _240
REMARK   85  A    between atoms: _240  and  _241
REMARK   86  A    between atoms: _240  and  _243
REMARK   87  A    between atoms: _243  and  _244
REMARK   88  A    between atoms: _247  and  _249
REMARK   89  A    between atoms: _249  and  _250
REMARK   90  A    between atoms: _253  and  _255
REMARK   91  A    between atoms: _255  and  _256
REMARK   92  A    between atoms: _255  and  _258
REMARK   93  A    between atoms: _261  and  _263
REMARK   94  A    between atoms: _263  and  _264
REMARK   95  A    between atoms: _263  and  _266
REMARK   96  A    between atoms: _266  and  _267
REMARK   97  A    between atoms: _270  and  _272
REMARK   98  A    between atoms: _272  and  _273
REMARK   99  A    between atoms: _275  and  _277
REMARK  100  A    between atoms: _277  and  _278
REMARK  101  A    between atoms: _277  and  _280
REMARK  102  A    between atoms: _280  and  _281
REMARK  103  A    between atoms: _283  and  _285
REMARK  104  A    between atoms: _285  and  _286
REMARK  105  A    between atoms: _285  and  _288
REMARK  106  A    between atoms: _288  and  _289
REMARK  107  A    between atoms: _292  and  _294
REMARK  108  A    between atoms: _294  and  _295
REMARK  109  A    between atoms: _294  and  _297
REMARK  110  A    between atoms: _297  and  _298
REMARK  111  A    between atoms: _301  and  _303
REMARK  112  A    between atoms: _303  and  _304
REMARK  113  A    between atoms: _303  and  _306
REMARK  114  A    between atoms: _310  and  _311
REMARK  115  A    between atoms: _317  and  _318
REMARK  116  A    between atoms: _323  and  _325
REMARK  117  A    between atoms: _325  and  _326
REMARK  118  A    between atoms: _325  and  _328
REMARK  119  A    between atoms: _328  and  _329
REMARK  120  A    between atoms: _332  and  _334
REMARK  121  A    between atoms: _334  and  _335
REMARK  122  A    between atoms: _334  and  _337
REMARK  123  A    between atoms: _337  and  _338
REMARK  124  A    between atoms: _341  and  _343
REMARK  125  A    between atoms: _343  and  _344
REMARK  126  A    between atoms: _343  and  _346
REMARK  127  A    between atoms: _346  and  _347
REMARK  128  A    between atoms: _349  and  _351
REMARK  129  A    between atoms: _351  and  _352
REMARK  130  A    between atoms: _351  and  _354
REMARK  131  A    between atoms: _357  and  _359
REMARK  132  A    between atoms: _359  and  _360
REMARK  133  A    between atoms: _359  and  _362
REMARK  134  A    between atoms: _362  and  _363
REMARK  135  A    between atoms: _373  and  _375
REMARK  136  A    between atoms: _375  and  _376
REMARK  137  A    between atoms: _375  and  _378
REMARK  138  A    between atoms: _378  and  _379
REMARK  139  A    between atoms: _384  and  _386
REMARK  140  A    between atoms: _386  and  _387
REMARK  141  A    between atoms: _386  and  _389
REMARK  142  A    between atoms: _389  and  _390
REMARK  143  A    between atoms: _390  and  _391
REMARK  144  A    between atoms: _391  and  _392
REMARK                            x       y       z     vdW  Elec       q    Type
REMARK                         _______ _______ _______ _____ _____    ______ ____
ROOT
ATOM      1  CG  TRP A   1      43.725  53.602  15.215  0.00  0.00    -0.002 A 
ATOM      2  CD1 TRP A   1      44.200  54.037  16.420  0.00  0.00    +0.068 A 
ATOM      3  NE1 TRP A   1      43.607  55.233  16.755  0.00  0.00    -0.352 N 
ATOM      4  HE1 TRP A   1      43.793  55.777  17.622  0.00  0.00    +0.166 HD
ATOM      5  CE2 TRP A   1      42.733  55.592  15.763  0.00  0.00    +0.056 A 
ATOM      6  CZ2 TRP A   1      41.904  56.715  15.651  0.00  0.00    +0.017 A 
ATOM      7  CH2 TRP A   1      41.120  56.817  14.530  0.00  0.00    +0.001 A 
ATOM      8  CZ3 TRP A   1      41.145  55.831  13.525  0.00  0.00    +0.000 A 
ATOM      9  CE3 TRP A   1      41.970  54.713  13.636  0.00  0.00    +0.001 A 
ATOM     10  CD2 TRP A   1      42.781  54.585  14.773  0.00  0.00    +0.013 A 
ENDROOT
BRANCH   1  11
ATOM     11  CB  TRP A   1      44.117  52.354  14.486  0.00  0.00    +0.053 C 
BRANCH  11  12
ATOM     12  CA  TRP A   1      45.384  52.508  13.643  0.00  0.00    +0.137 C 
BRANCH  12  13
ATOM     13  N   TRP A   1      46.552  52.547  14.511  0.00  0.00    -0.239 NA
ATOM     14  H   TRP A   1      46.413  52.592  15.541  0.00  0.00    +0.142 HD
ENDBRANCH  12  13
BRANCH  12  15
ATOM     15  C   TRP A   1      45.213  53.702  12.702  0.00  0.00    +0.224 C 
ATOM     16  O   TRP A   1      45.731  54.799  12.946  0.00  0.00    -0.287 OA
ENDBRANCH  12  15
ENDBRANCH  11  12
ENDBRANCH   1  11
TORSDOF 4
REMARK  Name = ../refined-set-2016/3czv/3czv_pocket.pdb
REMARK  144 active torsions:
REMARK  status: ('A' for Active; 'I' for Inactive)
REMARK    1  A    between atoms: _1  and  _3
REMARK    2  A    between atoms: _3  and  _4
REMARK    3  A    between atoms: _3  and  _6
REMARK    4  A    between atoms: _6  and  _7
REMARK    5  A    between atoms: _17  and  _19
REMARK    6  A    between atoms: _19  and  _20
REMARK    7  A    between atoms: _19  and  _22
REMARK    8  A    between atoms: _22  and  _23
REMARK    9  A    between atoms: _28  and  _29
REMARK   10  A    between atoms: _31  and  _33
REMARK   11  A    between atoms: _33  and  _34
REMARK   12  A    between atoms: _33  and  _36
REMARK   13  A    between atoms: _36  and  _37
REMARK   14  A    between atoms: _40  and  _41
REMARK   15  A    between atoms: _46  and  _48
REMARK   16  A    between atoms: _48  and  _49
REMARK   17  A    between atoms: _48  and  _51
REMARK   18  A    between atoms: _51  and  _52
REMARK   19  A    between atoms: _54  and  _56
REMARK   20  A    between atoms: _56  and  _57
REMARK   21  A    between atoms: _56  and  _59
REMARK   22  A    between atoms: _59  and  _60
REMARK   23  A    between atoms: _65  and  _67
REMARK   24  A    between atoms: _67  and  _68
REMARK   25  A    between atoms: _67  and  _70
REMARK   26  A    between atoms: _70  and  _71
REMARK   27  A    between atoms: _74  and  _76
REMARK   28  A    between atoms: _76  and  _77
REMARK   29  A    between atoms: _76  and  _79
REMARK   30  A    between atoms: _79  and  _80
REMARK   31  A    between atoms: _80  and  _81
REMARK   32  A    between atoms: _81  and  _82
REMARK   33  A    between atoms: _91  and  _93
REMARK   34  A    between atoms: _93  and  _94
REMARK   35  A    between atoms: _93  and  _96
REMARK   36  A    between atoms: _96  and  _97
REMARK   37  A    between atoms: _97  and  _98
REMARK   38  A    between atoms: _103  and  _105
REMARK   39  A    between atoms: _105  and  _106
REMARK   40  A    between atoms: _105  and  _108
REMARK   41  A    between atoms: _111  and  _113
REMARK   42  A    between atoms: _124  and  _127
REMARK   43  A    between atoms: _127  and  _128
REMARK   44  A    between atoms: _133  and  _134
REMARK   45  A    between atoms: _142  and  _144
REMARK   46  A    between atoms: _144  and  _145
REMARK   47  A    between atoms: _144  and  _147
REMARK   48  A    between atoms: _147  and  _148
REMARK   49  A    between atoms: _148  and  _149
REMARK   50  A    between atoms: _152  and  _154
REMARK   51  A    between atoms: _154  and  _155
REMARK   52  A    between atoms: _154  and  _157
REMARK   53  A    between atoms: _157  and  _158
REMARK   54  A    between atoms: _163  and  _165
REMARK   55  A    between atoms: _165  and  _166
REMARK   56  A    between atoms: _165  and  _168
REMARK   57  A    between atoms: _168  and  _169
REMARK   58  A    between atoms: _169  and  _170
REMARK   59  A    between atoms: _173  and  _175
REMARK   60  A    between atoms: _175  and  _176
REMARK   61  A    between atoms: _175  and  _178
REMARK   62  A    between atoms: _178  and  _179
REMARK   63  A    between atoms: _182  and  _184
REMARK   64  A    between atoms: _184  and  _185
REMARK   65  A    between atoms: _184  and  _187
REMARK   66  A    between atoms: _187  and  _188
REMARK   67  A    between atoms: _189  and  ZN_401
REMARK   68  A    between atoms: _193  and  _195
REMARK   69  A    between atoms: _195  and  _196
REMARK   70  A    between atoms: _195  and  _198
REMARK   71  A    between atoms: _201  and  _203
REMARK   72  A    between atoms: _203  and  _204
REMARK   73  A    between atoms: _203  and  _206
REMARK   74  A    between atoms: _209  and  _211
REMARK   75  A    between atoms: _211  and  _212
REMARK   76  A    between atoms: _211  and  _214
REMARK   77  A    between atoms: _214  and  _215
REMARK   78  A    between atoms: _220  and  _222
REMARK   79  A    between atoms: _222  and  _223
REMARK   80  A    between atoms: _222  and  _225
REMARK   81  A    between atoms: _225  and  _226
REMARK   82  A    between atoms: _232  and  _234
REMARK   83  A    between atoms: _234  and  _235
REMARK   84  A    between atoms: _238  and  _240
REMARK   85  A    between atoms: _240  and  _241
REMARK   86  A    between atoms: _240  and  _243
REMARK   87  A    between atoms: _243  and  _244
REMARK   88  A    between atoms: _247  and  _249
REMARK   89  A    between atoms: _249  and  _250
REMARK   90  A    between atoms: _253  and  _255
REMARK   91  A    between atoms: _255  and  _256
REMARK   92  A    between atoms: _255  and  _258
REMARK   93  A    between atoms: _261  and  _263
REMARK   94  A    between atoms: _263  and  _264
REMARK   95  A    between atoms: _263  and  _266
REMARK   96  A    between atoms: _266  and  _267
REMARK   97  A    between atoms: _270  and  _272
REMARK   98  A    between atoms: _272  and  _273
REMARK   99  A    between atoms: _275  and  _277
REMARK  100  A    between atoms: _277  and  _278
REMARK  101  A    between atoms: _277  and  _280
REMARK  102  A    between atoms: _280  and  _281
REMARK  103  A    between atoms: _283  and  _285
REMARK  104  A    between atoms: _285  and  _286
REMARK  105  A    between atoms: _285  and  _288
REMARK  106  A    between atoms: _288  and  _289
REMARK  107  A    between atoms: _292  and  _294
REMARK  108  A    between atoms: _294  and  _295
REMARK  109  A    between atoms: _294  and  _297
REMARK  110  A    between atoms: _297  and  _298
REMARK  111  A    between atoms: _301  and  _303
REMARK  112  A    between atoms: _303  and  _304
REMARK  113  A    between atoms: _303  and  _306
REMARK  114  A    between atoms: _310  and  _311
REMARK  115  A    between atoms: _317  and  _318
REMARK  116  A    between atoms: _323  and  _325
REMARK  117  A    between atoms: _325  and  _326
REMARK  118  A    between atoms: _325  and  _328
REMARK  119  A    between atoms: _328  and  _329
REMARK  120  A    between atoms: _332  and  _334
REMARK  121  A    between atoms: _334  and  _335
REMARK  122  A    between atoms: _334  and  _337
REMARK  123  A    between atoms: _337  and  _338
REMARK  124  A    between atoms: _341  and  _343
REMARK  125  A    between atoms: _343  and  _344
REMARK  126  A    between atoms: _343  and  _346
REMARK  127  A    between atoms: _346  and  _347
REMARK  128  A    between atoms: _349  and  _351
REMARK  129  A    between atoms: _351  and  _352
REMARK  130  A    between atoms: _351  and  _354
REMARK  131  A    between atoms: _357  and  _359
REMARK  132  A    between atoms: _359  and  _360
REMARK  133  A    between atoms: _359  and  _362
REMARK  134  A    between atoms: _362  and  _363
REMARK  135  A    between atoms: _373  and  _375
REMARK  136  A    between atoms: _375  and  _376
REMARK  137  A    between atoms: _375  and  _378
REMARK  138  A    between atoms: _378  and  _379
REMARK  139  A    between atoms: _384  and  _386
REMARK  140  A    between atoms: _386  and  _387
REMARK  141  A    between atoms: _386  and  _389
REMARK  142  A    between atoms: _389  and  _390
REMARK  143  A    between atoms: _390  and  _391
REMARK  144  A    between atoms: _391  and  _392
REMARK                            x       y       z     vdW  Elec       q    Type
REMARK                         _______ _______ _______ _____ _____    ______ ____
ROOT
ATOM      1  CG  TYR A   1      40.319  55.817   8.307  0.00  0.00    -0.020 A 
ATOM      2  CD2 TYR A   1      40.720  56.815   9.197  0.00  0.00    -0.001 A 
ATOM      3  CE2 TYR A   1      39.905  57.207  10.254  0.00  0.00    +0.036 A 
ATOM      4  CZ  TYR A   1      38.672  56.595  10.436  0.00  0.00    +0.134 A 
ATOM      5  CE1 TYR A   1      38.250  55.592   9.572  0.00  0.00    +0.036 A 
ATOM      6  CD1 TYR A   1      39.077  55.209   8.509  0.00  0.00    -0.001 A 
ENDROOT
BRANCH   4   7
ATOM      7  OH  TYR A   1      37.865  57.012  11.468  0.00  0.00    -0.506 OA
ATOM      8  HH  TYR A   1      38.324  57.727  11.976  0.00  0.00    +0.292 HD
ENDBRANCH   4   7
BRANCH   1   9
ATOM      9  CB  TYR A   1      41.207  55.403   7.154  0.00  0.00    +0.051 C 
BRANCH   9  10
ATOM     10  CA  TYR A   1      42.127  54.224   7.486  0.00  0.00    +0.137 C 
BRANCH  10  11
ATOM     11  N   TYR A   1      43.118  54.609   8.483  0.00  0.00    -0.239 NA
ATOM     12  H   TYR A   1      43.833  55.326   8.247  0.00  0.00    +0.142 HD
ENDBRANCH  10  11
BRANCH  10  13
ATOM     13  C   TYR A   1      42.802  53.722   6.217  0.00  0.00    +0.224 C 
ATOM     14  O   TYR A   1      42.163  53.566   5.173  0.00  0.00    -0.287 OA
ENDBRANCH  10  13
ENDBRANCH   9  10
ENDBRANCH   1   9
TORSDOF 5
REMARK  Name = ../refined-set-2016/3czv/3czv_pocket.pdb
REMARK  144 active torsions:
REMARK  status: ('A' for Active; 'I' for Inactive)
REMARK    1  A    between atoms: _1  and  _3
REMARK    2  A    between atoms: _3  and  _4
REMARK    3  A    between atoms: _3  and  _6
REMARK    4  A    between atoms: _6  and  _7
REMARK    5  A    between atoms: _17  and  _19
REMARK    6  A    between atoms: _19  and  _20
REMARK    7  A    between atoms: _19  and  _22
REMARK    8  A    between atoms: _22  and  _23
REMARK    9  A    between atoms: _28  and  _29
REMARK   10  A    between atoms: _31  and  _33
REMARK   11  A    between atoms: _33  and  _34
REMARK   12  A    between atoms: _33  and  _36
REMARK   13  A    between atoms: _36  and  _37
REMARK   14  A    between atoms: _40  and  _41
REMARK   15  A    between atoms: _46  and  _48
REMARK   16  A    between atoms: _48  and  _49
REMARK   17  A    between atoms: _48  and  _51
REMARK   18  A    between atoms: _51  and  _52
REMARK   19  A    between atoms: _54  and  _56
REMARK   20  A    between atoms: _56  and  _57
REMARK   21  A    between atoms: _56  and  _59
REMARK   22  A    between atoms: _59  and  _60
REMARK   23  A    between atoms: _65  and  _67
REMARK   24  A    between atoms: _67  and  _68
REMARK   25  A    between atoms: _67  and  _70
REMARK   26  A    between atoms: _70  and  _71
REMARK   27  A    between atoms: _74  and  _76
REMARK   28  A    between atoms: _76  and  _77
REMARK   29  A    between atoms: _76  and  _79
REMARK   30  A    between atoms: _79  and  _80
REMARK   31  A    between atoms: _80  and  _81
REMARK   32  A    between atoms: _81  and  _82
REMARK   33  A    between atoms: _91  and  _93
REMARK   34  A    between atoms: _93  and  _94
REMARK   35  A    between atoms: _93  and  _96
REMARK   36  A    between atoms: _96  and  _97
REMARK   37  A    between atoms: _97  and  _98
REMARK   38  A    between atoms: _103  and  _105
REMARK   39  A    between atoms: _105  and  _106
REMARK   40  A    between atoms: _105  and  _108
REMARK   41  A    between atoms: _111  and  _113
REMARK   42  A    between atoms: _124  and  _127
REMARK   43  A    between atoms: _127  and  _128
REMARK   44  A    between atoms: _133  and  _134
REMARK   45  A    between atoms: _142  and  _144
REMARK   46  A    between atoms: _144  and  _145
REMARK   47  A    between atoms: _144  and  _147
REMARK   48  A    between atoms: _147  and  _148
REMARK   49  A    between atoms: _148  and  _149
REMARK   50  A    between atoms: _152  and  _154
REMARK   51  A    between atoms: _154  and  _155
REMARK   52  A    between atoms: _154  and  _157
REMARK   53  A    between atoms: _157  and  _158
REMARK   54  A    between atoms: _163  and  _165
REMARK   55  A    between atoms: _165  and  _166
REMARK   56  A    between atoms: _165  and  _168
REMARK   57  A    between atoms: _168  and  _169
REMARK   58  A    between atoms: _169  and  _170
REMARK   59  A    between atoms: _173  and  _175
REMARK   60  A    between atoms: _175  and  _176
REMARK   61  A    between atoms: _175  and  _178
REMARK   62  A    between atoms: _178  and  _179
REMARK   63  A    between atoms: _182  and  _184
REMARK   64  A    between atoms: _184  and  _185
REMARK   65  A    between atoms: _184  and  _187
REMARK   66  A    between atoms: _187  and  _188
REMARK   67  A    between atoms: _189  and  ZN_401
REMARK   68  A    between atoms: _193  and  _195
REMARK   69  A    between atoms: _195  and  _196
REMARK   70  A    between atoms: _195  and  _198
REMARK   71  A    between atoms: _201  and  _203
REMARK   72  A    between atoms: _203  and  _204
REMARK   73  A    between atoms: _203  and  _206
REMARK   74  A    between atoms: _209  and  _211
REMARK   75  A    between atoms: _211  and  _212
REMARK   76  A    between atoms: _211  and  _214
REMARK   77  A    between atoms: _214  and  _215
REMARK   78  A    between atoms: _220  and  _222
REMARK   79  A    between atoms: _222  and  _223
REMARK   80  A    between atoms: _222  and  _225
REMARK   81  A    between atoms: _225  and  _226
REMARK   82  A    between atoms: _232  and  _234
REMARK   83  A    between atoms: _234  and  _235
REMARK   84  A    between atoms: _238  and  _240
REMARK   85  A    between atoms: _240  and  _241
REMARK   86  A    between atoms: _240  and  _243
REMARK   87  A    between atoms: _243  and  _244
REMARK   88  A    between atoms: _247  and  _249
REMARK   89  A    between atoms: _249  and  _250
REMARK   90  A    between atoms: _253  and  _255
REMARK   91  A    between atoms: _255  and  _256
REMARK   92  A    between atoms: _255  and  _258
REMARK   93  A    between atoms: _261  and  _263
REMARK   94  A    between atoms: _263  and  _264
REMARK   95  A    between atoms: _263  and  _266
REMARK   96  A    between atoms: _266  and  _267
REMARK   97  A    between atoms: _270  and  _272
REMARK   98  A    between atoms: _272  and  _273
REMARK   99  A    between atoms: _275  and  _277
REMARK  100  A    between atoms: _277  and  _278
REMARK  101  A    between atoms: _277  and  _280
REMARK  102  A    between atoms: _280  and  _281
REMARK  103  A    between atoms: _283  and  _285
REMARK  104  A    between atoms: _285  and  _286
REMARK  105  A    between atoms: _285  and  _288
REMARK  106  A    between atoms: _288  and  _289
REMARK  107  A    between atoms: _292  and  _294
REMARK  108  A    between atoms: _294  and  _295
REMARK  109  A    between atoms: _294  and  _297
REMARK  110  A    between atoms: _297  and  _298
REMARK  111  A    between atoms: _301  and  _303
REMARK  112  A    between atoms: _303  and  _304
REMARK  113  A    between atoms: _303  and  _306
REMARK  114  A    between atoms: _310  and  _311
REMARK  115  A    between atoms: _317  and  _318
REMARK  116  A    between atoms: _323  and  _325
REMARK  117  A    between atoms: _325  and  _326
REMARK  118  A    between atoms: _325  and  _328
REMARK  119  A    between atoms: _328  and  _329
REMARK  120  A    between atoms: _332  and  _334
REMARK  121  A    between atoms: _334  and  _335
REMARK  122  A    between atoms: _334  and  _337
REMARK  123  A    between atoms: _337  and  _338
REMARK  124  A    between atoms: _341  and  _343
REMARK  125  A    between atoms: _343  and  _344
REMARK  126  A    between atoms: _343  and  _346
REMARK  127  A    between atoms: _346  and  _347
REMARK  128  A    between atoms: _349  and  _351
REMARK  129  A    between atoms: _351  and  _352
REMARK  130  A    between atoms: _351  and  _354
REMARK  131  A    between atoms: _357  and  _359
REMARK  132  A    between atoms: _359  and  _360
REMARK  133  A    between atoms: _359  and  _362
REMARK  134  A    between atoms: _362  and  _363
REMARK  135  A    between atoms: _373  and  _375
REMARK  136  A    between atoms: _375  and  _376
REMARK  137  A    between atoms: _375  and  _378
REMARK  138  A    between atoms: _378  and  _379
REMARK  139  A    between atoms: _384  and  _386
REMARK  140  A    between atoms: _386  and  _387
REMARK  141  A    between atoms: _386  and  _389
REMARK  142  A    between atoms: _389  and  _390
REMARK  143  A    between atoms: _390  and  _391
REMARK  144  A    between atoms: _391  and  _392
REMARK                            x       y       z     vdW  Elec       q    Type
REMARK                         _______ _______ _______ _____ _____    ______ ____
ROOT
ATOM      1  C   SER A   1      29.872  51.831  14.151  0.00  0.00    +0.244 C 
ATOM      2  O   SER A   1      31.058  51.599  14.392  0.00  0.00    -0.273 OA
ATOM      3  N   PRO A   2      29.475  52.311  12.966  0.00  0.00    -0.273 N 
ATOM      4  CA  PRO A   2      28.103  52.617  12.554  0.00  0.00    +0.140 C 
ATOM      5  CB  PRO A   2      28.312  53.622  11.433  0.00  0.00    +0.030 C 
ATOM      6  CG  PRO A   2      29.521  53.058  10.744  0.00  0.00    +0.024 C 
ATOM      7  CD  PRO A   2      30.434  52.719  11.920  0.00  0.00    +0.094 C 
ENDROOT
BRANCH   4   8
ATOM      8  C   PRO A   2      27.350  51.372  12.076  0.00  0.00    +0.227 C 
ATOM      9  O   PRO A   2      27.862  50.253  12.154  0.00  0.00    -0.286 OA
ENDBRANCH   4   8
BRANCH   1  10
ATOM     10  CA  SER A   1      28.794  51.566  15.205  0.00  0.00    +0.175 C 
BRANCH  10  11
ATOM     11  N   SER A   1      29.307  50.593  16.164  0.00  0.00    -0.236 NA
ATOM     12  H   SER A   1      30.229  50.775  16.609  0.00  0.00    +0.142 HD
ENDBRANCH  10  11
BRANCH  10  13
ATOM     13  CB  SER A   1      28.442  52.873  15.924  0.00  0.00    +0.163 C 
BRANCH  13  14
ATOM     14  OG  SER A   1      27.420  52.671  16.888  0.00  0.00    -0.380 OA
ATOM     15  H   SER A   1      26.607  52.329  16.439  0.00  0.00    +0.211 HD
ENDBRANCH  13  14
ENDBRANCH  10  13
ENDBRANCH   1  10
TORSDOF 5
REMARK  Name = ../refined-set-2016/3czv/3czv_pocket.pdb
REMARK  144 active torsions:
REMARK  status: ('A' for Active; 'I' for Inactive)
REMARK    1  A    between atoms: _1  and  _3
REMARK    2  A    between atoms: _3  and  _4
REMARK    3  A    between atoms: _3  and  _6
REMARK    4  A    between atoms: _6  and  _7
REMARK    5  A    between atoms: _17  and  _19
REMARK    6  A    between atoms: _19  and  _20
REMARK    7  A    between atoms: _19  and  _22
REMARK    8  A    between atoms: _22  and  _23
REMARK    9  A    between atoms: _28  and  _29
REMARK   10  A    between atoms: _31  and  _33
REMARK   11  A    between atoms: _33  and  _34
REMARK   12  A    between atoms: _33  and  _36
REMARK   13  A    between atoms: _36  and  _37
REMARK   14  A    between atoms: _40  and  _41
REMARK   15  A    between atoms: _46  and  _48
REMARK   16  A    between atoms: _48  and  _49
REMARK   17  A    between atoms: _48  and  _51
REMARK   18  A    between atoms: _51  and  _52
REMARK   19  A    between atoms: _54  and  _56
REMARK   20  A    between atoms: _56  and  _57
REMARK   21  A    between atoms: _56  and  _59
REMARK   22  A    between atoms: _59  and  _60
REMARK   23  A    between atoms: _65  and  _67
REMARK   24  A    between atoms: _67  and  _68
REMARK   25  A    between atoms: _67  and  _70
REMARK   26  A    between atoms: _70  and  _71
REMARK   27  A    between atoms: _74  and  _76
REMARK   28  A    between atoms: _76  and  _77
REMARK   29  A    between atoms: _76  and  _79
REMARK   30  A    between atoms: _79  and  _80
REMARK   31  A    between atoms: _80  and  _81
REMARK   32  A    between atoms: _81  and  _82
REMARK   33  A    between atoms: _91  and  _93
REMARK   34  A    between atoms: _93  and  _94
REMARK   35  A    between atoms: _93  and  _96
REMARK   36  A    between atoms: _96  and  _97
REMARK   37  A    between atoms: _97  and  _98
REMARK   38  A    between atoms: _103  and  _105
REMARK   39  A    between atoms: _105  and  _106
REMARK   40  A    between atoms: _105  and  _108
REMARK   41  A    between atoms: _111  and  _113
REMARK   42  A    between atoms: _124  and  _127
REMARK   43  A    between atoms: _127  and  _128
REMARK   44  A    between atoms: _133  and  _134
REMARK   45  A    between atoms: _142  and  _144
REMARK   46  A    between atoms: _144  and  _145
REMARK   47  A    between atoms: _144  and  _147
REMARK   48  A    between atoms: _147  and  _148
REMARK   49  A    between atoms: _148  and  _149
REMARK   50  A    between atoms: _152  and  _154
REMARK   51  A    between atoms: _154  and  _155
REMARK   52  A    between atoms: _154  and  _157
REMARK   53  A    between atoms: _157  and  _158
REMARK   54  A    between atoms: _163  and  _165
REMARK   55  A    between atoms: _165  and  _166
REMARK   56  A    between atoms: _165  and  _168
REMARK   57  A    between atoms: _168  and  _169
REMARK   58  A    between atoms: _169  and  _170
REMARK   59  A    between atoms: _173  and  _175
REMARK   60  A    between atoms: _175  and  _176
REMARK   61  A    between atoms: _175  and  _178
REMARK   62  A    between atoms: _178  and  _179
REMARK   63  A    between atoms: _182  and  _184
REMARK   64  A    between atoms: _184  and  _185
REMARK   65  A    between atoms: _184  and  _187
REMARK   66  A    between atoms: _187  and  _188
REMARK   67  A    between atoms: _189  and  ZN_401
REMARK   68  A    between atoms: _193  and  _195
REMARK   69  A    between atoms: _195  and  _196
REMARK   70  A    between atoms: _195  and  _198
REMARK   71  A    between atoms: _201  and  _203
REMARK   72  A    between atoms: _203  and  _204
REMARK   73  A    between atoms: _203  and  _206
REMARK   74  A    between atoms: _209  and  _211
REMARK   75  A    between atoms: _211  and  _212
REMARK   76  A    between atoms: _211  and  _214
REMARK   77  A    between atoms: _214  and  _215
REMARK   78  A    between atoms: _220  and  _222
REMARK   79  A    between atoms: _222  and  _223
REMARK   80  A    between atoms: _222  and  _225
REMARK   81  A    between atoms: _225  and  _226
REMARK   82  A    between atoms: _232  and  _234
REMARK   83  A    between atoms: _234  and  _235
REMARK   84  A    between atoms: _238  and  _240
REMARK   85  A    between atoms: _240  and  _241
REMARK   86  A    between atoms: _240  and  _243
REMARK   87  A    between atoms: _243  and  _244
REMARK   88  A    between atoms: _247  and  _249
REMARK   89  A    between atoms: _249  and  _250
REMARK   90  A    between atoms: _253  and  _255
REMARK   91  A    between atoms: _255  and  _256
REMARK   92  A    between atoms: _255  and  _258
REMARK   93  A    between atoms: _261  and  _263
REMARK   94  A    between atoms: _263  and  _264
REMARK   95  A    between atoms: _263  and  _266
REMARK   96  A    between atoms: _266  and  _267
REMARK   97  A    between atoms: _270  and  _272
REMARK   98  A    between atoms: _272  and  _273
REMARK   99  A    between atoms: _275  and  _277
REMARK  100  A    between atoms: _277  and  _278
REMARK  101  A    between atoms: _277  and  _280
REMARK  102  A    between atoms: _280  and  _281
REMARK  103  A    between atoms: _283  and  _285
REMARK  104  A    between atoms: _285  and  _286
REMARK  105  A    between atoms: _285  and  _288
REMARK  106  A    between atoms: _288  and  _289
REMARK  107  A    between atoms: _292  and  _294
REMARK  108  A    between atoms: _294  and  _295
REMARK  109  A    between atoms: _294  and  _297
REMARK  110  A    between atoms: _297  and  _298
REMARK  111  A    between atoms: _301  and  _303
REMARK  112  A    between atoms: _303  and  _304
REMARK  113  A    between atoms: _303  and  _306
REMARK  114  A    between atoms: _310  and  _311
REMARK  115  A    between atoms: _317  and  _318
REMARK  116  A    between atoms: _323  and  _325
REMARK  117  A    between atoms: _325  and  _326
REMARK  118  A    between atoms: _325  and  _328
REMARK  119  A    between atoms: _328  and  _329
REMARK  120  A    between atoms: _332  and  _334
REMARK  121  A    between atoms: _334  and  _335
REMARK  122  A    between atoms: _334  and  _337
REMARK  123  A    between atoms: _337  and  _338
REMARK  124  A    between atoms: _341  and  _343
REMARK  125  A    between atoms: _343  and  _344
REMARK  126  A    between atoms: _343  and  _346
REMARK  127  A    between atoms: _346  and  _347
REMARK  128  A    between atoms: _349  and  _351
REMARK  129  A    between atoms: _351  and  _352
REMARK  130  A    between atoms: _351  and  _354
REMARK  131  A    between atoms: _357  and  _359
REMARK  132  A    between atoms: _359  and  _360
REMARK  133  A    between atoms: _359  and  _362
REMARK  134  A    between atoms: _362  and  _363
REMARK  135  A    between atoms: _373  and  _375
REMARK  136  A    between atoms: _375  and  _376
REMARK  137  A    between atoms: _375  and  _378
REMARK  138  A    between atoms: _378  and  _379
REMARK  139  A    between atoms: _384  and  _386
REMARK  140  A    between atoms: _386  and  _387
REMARK  141  A    between atoms: _386  and  _389
REMARK  142  A    between atoms: _389  and  _390
REMARK  143  A    between atoms: _390  and  _391
REMARK  144  A    between atoms: _391  and  _392
REMARK                            x       y       z     vdW  Elec       q    Type
REMARK                         _______ _______ _______ _____ _____    ______ ____
ROOT
ATOM      1  CA  SER A   1      39.471  64.237  10.915  0.00  0.00    +0.163 C 
ENDROOT
BRANCH   1   2
ATOM      2  N   SER A   1      40.547  63.327  11.310  0.00  0.00    -0.237 NA
ATOM      3  H   SER A   1      41.399  63.729  11.751  0.00  0.00    +0.142 HD
ENDBRANCH   1   2
BRANCH   1   4
ATOM      4  CB  SER A   1      39.812  65.615  11.476  0.00  0.00    +0.227 C 
ATOM      5  OG  SER A   1      40.894  65.805  12.038  0.00  0.00    -0.287 OA
ENDBRANCH   1   4
BRANCH   1   6
ATOM      6  C   SER A   1      38.135  63.767  11.510  0.00  0.00    +0.162 C 
BRANCH   6   7
ATOM      7  O   SER A   1      37.060  64.609  11.130  0.00  0.00    -0.380 OA
ATOM      8  H   SER A   1      36.977  64.611  10.144  0.00  0.00    +0.211 HD
ENDBRANCH   6   7
ENDBRANCH   1   6
TORSDOF 4
REMARK  Name = ../refined-set-2016/3czv/3czv_pocket.pdb
REMARK  144 active torsions:
REMARK  status: ('A' for Active; 'I' for Inactive)
REMARK    1  A    between atoms: _1  and  _3
REMARK    2  A    between atoms: _3  and  _4
REMARK    3  A    between atoms: _3  and  _6
REMARK    4  A    between atoms: _6  and  _7
REMARK    5  A    between atoms: _17  and  _19
REMARK    6  A    between atoms: _19  and  _20
REMARK    7  A    between atoms: _19  and  _22
REMARK    8  A    between atoms: _22  and  _23
REMARK    9  A    between atoms: _28  and  _29
REMARK   10  A    between atoms: _31  and  _33
REMARK   11  A    between atoms: _33  and  _34
REMARK   12  A    between atoms: _33  and  _36
REMARK   13  A    between atoms: _36  and  _37
REMARK   14  A    between atoms: _40  and  _41
REMARK   15  A    between atoms: _46  and  _48
REMARK   16  A    between atoms: _48  and  _49
REMARK   17  A    between atoms: _48  and  _51
REMARK   18  A    between atoms: _51  and  _52
REMARK   19  A    between atoms: _54  and  _56
REMARK   20  A    between atoms: _56  and  _57
REMARK   21  A    between atoms: _56  and  _59
REMARK   22  A    between atoms: _59  and  _60
REMARK   23  A    between atoms: _65  and  _67
REMARK   24  A    between atoms: _67  and  _68
REMARK   25  A    between atoms: _67  and  _70
REMARK   26  A    between atoms: _70  and  _71
REMARK   27  A    between atoms: _74  and  _76
REMARK   28  A    between atoms: _76  and  _77
REMARK   29  A    between atoms: _76  and  _79
REMARK   30  A    between atoms: _79  and  _80
REMARK   31  A    between atoms: _80  and  _81
REMARK   32  A    between atoms: _81  and  _82
REMARK   33  A    between atoms: _91  and  _93
REMARK   34  A    between atoms: _93  and  _94
REMARK   35  A    between atoms: _93  and  _96
REMARK   36  A    between atoms: _96  and  _97
REMARK   37  A    between atoms: _97  and  _98
REMARK   38  A    between atoms: _103  and  _105
REMARK   39  A    between atoms: _105  and  _106
REMARK   40  A    between atoms: _105  and  _108
REMARK   41  A    between atoms: _111  and  _113
REMARK   42  A    between atoms: _124  and  _127
REMARK   43  A    between atoms: _127  and  _128
REMARK   44  A    between atoms: _133  and  _134
REMARK   45  A    between atoms: _142  and  _144
REMARK   46  A    between atoms: _144  and  _145
REMARK   47  A    between atoms: _144  and  _147
REMARK   48  A    between atoms: _147  and  _148
REMARK   49  A    between atoms: _148  and  _149
REMARK   50  A    between atoms: _152  and  _154
REMARK   51  A    between atoms: _154  and  _155
REMARK   52  A    between atoms: _154  and  _157
REMARK   53  A    between atoms: _157  and  _158
REMARK   54  A    between atoms: _163  and  _165
REMARK   55  A    between atoms: _165  and  _166
REMARK   56  A    between atoms: _165  and  _168
REMARK   57  A    between atoms: _168  and  _169
REMARK   58  A    between atoms: _169  and  _170
REMARK   59  A    between atoms: _173  and  _175
REMARK   60  A    between atoms: _175  and  _176
REMARK   61  A    between atoms: _175  and  _178
REMARK   62  A    between atoms: _178  and  _179
REMARK   63  A    between atoms: _182  and  _184
REMARK   64  A    between atoms: _184  and  _185
REMARK   65  A    between atoms: _184  and  _187
REMARK   66  A    between atoms: _187  and  _188
REMARK   67  A    between atoms: _189  and  ZN_401
REMARK   68  A    between atoms: _193  and  _195
REMARK   69  A    between atoms: _195  and  _196
REMARK   70  A    between atoms: _195  and  _198
REMARK   71  A    between atoms: _201  and  _203
REMARK   72  A    between atoms: _203  and  _204
REMARK   73  A    between atoms: _203  and  _206
REMARK   74  A    between atoms: _209  and  _211
REMARK   75  A    between atoms: _211  and  _212
REMARK   76  A    between atoms: _211  and  _214
REMARK   77  A    between atoms: _214  and  _215
REMARK   78  A    between atoms: _220  and  _222
REMARK   79  A    between atoms: _222  and  _223
REMARK   80  A    between atoms: _222  and  _225
REMARK   81  A    between atoms: _225  and  _226
REMARK   82  A    between atoms: _232  and  _234
REMARK   83  A    between atoms: _234  and  _235
REMARK   84  A    between atoms: _238  and  _240
REMARK   85  A    between atoms: _240  and  _241
REMARK   86  A    between atoms: _240  and  _243
REMARK   87  A    between atoms: _243  and  _244
REMARK   88  A    between atoms: _247  and  _249
REMARK   89  A    between atoms: _249  and  _250
REMARK   90  A    between atoms: _253  and  _255
REMARK   91  A    between atoms: _255  and  _256
REMARK   92  A    between atoms: _255  and  _258
REMARK   93  A    between atoms: _261  and  _263
REMARK   94  A    between atoms: _263  and  _264
REMARK   95  A    between atoms: _263  and  _266
REMARK   96  A    between atoms: _266  and  _267
REMARK   97  A    between atoms: _270  and  _272
REMARK   98  A    between atoms: _272  and  _273
REMARK   99  A    between atoms: _275  and  _277
REMARK  100  A    between atoms: _277  and  _278
REMARK  101  A    between atoms: _277  and  _280
REMARK  102  A    between atoms: _280  and  _281
REMARK  103  A    between atoms: _283  and  _285
REMARK  104  A    between atoms: _285  and  _286
REMARK  105  A    between atoms: _285  and  _288
REMARK  106  A    between atoms: _288  and  _289
REMARK  107  A    between atoms: _292  and  _294
REMARK  108  A    between atoms: _294  and  _295
REMARK  109  A    between atoms: _294  and  _297
REMARK  110  A    between atoms: _297  and  _298
REMARK  111  A    between atoms: _301  and  _303
REMARK  112  A    between atoms: _303  and  _304
REMARK  113  A    between atoms: _303  and  _306
REMARK  114  A    between atoms: _310  and  _311
REMARK  115  A    between atoms: _317  and  _318
REMARK  116  A    between atoms: _323  and  _325
REMARK  117  A    between atoms: _325  and  _326
REMARK  118  A    between atoms: _325  and  _328
REMARK  119  A    between atoms: _328  and  _329
REMARK  120  A    between atoms: _332  and  _334
REMARK  121  A    between atoms: _334  and  _335
REMARK  122  A    between atoms: _334  and  _337
REMARK  123  A    between atoms: _337  and  _338
REMARK  124  A    between atoms: _341  and  _343
REMARK  125  A    between atoms: _343  and  _344
REMARK  126  A    between atoms: _343  and  _346
REMARK  127  A    between atoms: _346  and  _347
REMARK  128  A    between atoms: _349  and  _351
REMARK  129  A    between atoms: _351  and  _352
REMARK  130  A    between atoms: _351  and  _354
REMARK  131  A    between atoms: _357  and  _359
REMARK  132  A    between atoms: _359  and  _360
REMARK  133  A    between atoms: _359  and  _362
REMARK  134  A    between atoms: _362  and  _363
REMARK  135  A    between atoms: _373  and  _375
REMARK  136  A    between atoms: _375  and  _376
REMARK  137  A    between atoms: _375  and  _378
REMARK  138  A    between atoms: _378  and  _379
REMARK  139  A    between atoms: _384  and  _386
REMARK  140  A    between atoms: _386  and  _387
REMARK  141  A    between atoms: _386  and  _389
REMARK  142  A    between atoms: _389  and  _390
REMARK  143  A    between atoms: _390  and  _391
REMARK  144  A    between atoms: _391  and  _392
REMARK                            x       y       z     vdW  Elec       q    Type
REMARK                         _______ _______ _______ _____ _____    ______ ____
ROOT
ATOM      1  CB  ASN A   1      38.649  67.745  16.568  0.00  0.00    +0.110 C 
ENDROOT
BRANCH   1   2
ATOM      2  CG  ASN A   1      38.650  66.236  16.418  0.00  0.00    +0.221 C 
ATOM      3  OD1 ASN A   1      39.515  65.548  16.971  0.00  0.00    -0.275 OA
ATOM      4  ND2 ASN A   1      37.675  65.711  15.694  0.00  0.00    -0.329 N 
ATOM      5 HD21 ASN A   1      37.615  64.680  15.572  0.00  0.00    +0.145 HD
ATOM      6 HD22 ASN A   1      36.969  66.329  15.247  0.00  0.00    +0.145 HD
ENDBRANCH   1   2
BRANCH   1   7
ATOM      7  CA  ASN A   1      37.875  68.468  15.453  0.00  0.00    +0.142 C 
BRANCH   7   8
ATOM      8  N   ASN A   1      38.636  68.476  14.207  0.00  0.00    -0.239 NA
ATOM      9  H   ASN A   1      39.524  69.016  14.165  0.00  0.00    +0.142 HD
ENDBRANCH   7   8
BRANCH   7  10
ATOM     10  C   ASN A   1      37.637  69.888  15.934  0.00  0.00    +0.225 C 
ATOM     11  O   ASN A   1      38.588  70.616  16.189  0.00  0.00    -0.287 OA
ENDBRANCH   7  10
ENDBRANCH   1   7
TORSDOF 4
REMARK  Name = ../refined-set-2016/3czv/3czv_pocket.pdb
REMARK  144 active torsions:
REMARK  status: ('A' for Active; 'I' for Inactive)
REMARK    1  A    between atoms: _1  and  _3
REMARK    2  A    between atoms: _3  and  _4
REMARK    3  A    between atoms: _3  and  _6
REMARK    4  A    between atoms: _6  and  _7
REMARK    5  A    between atoms: _17  and  _19
REMARK    6  A    between atoms: _19  and  _20
REMARK    7  A    between atoms: _19  and  _22
REMARK    8  A    between atoms: _22  and  _23
REMARK    9  A    between atoms: _28  and  _29
REMARK   10  A    between atoms: _31  and  _33
REMARK   11  A    between atoms: _33  and  _34
REMARK   12  A    between atoms: _33  and  _36
REMARK   13  A    between atoms: _36  and  _37
REMARK   14  A    between atoms: _40  and  _41
REMARK   15  A    between atoms: _46  and  _48
REMARK   16  A    between atoms: _48  and  _49
REMARK   17  A    between atoms: _48  and  _51
REMARK   18  A    between atoms: _51  and  _52
REMARK   19  A    between atoms: _54  and  _56
REMARK   20  A    between atoms: _56  and  _57
REMARK   21  A    between atoms: _56  and  _59
REMARK   22  A    between atoms: _59  and  _60
REMARK   23  A    between atoms: _65  and  _67
REMARK   24  A    between atoms: _67  and  _68
REMARK   25  A    between atoms: _67  and  _70
REMARK   26  A    between atoms: _70  and  _71
REMARK   27  A    between atoms: _74  and  _76
REMARK   28  A    between atoms: _76  and  _77
REMARK   29  A    between atoms: _76  and  _79
REMARK   30  A    between atoms: _79  and  _80
REMARK   31  A    between atoms: _80  and  _81
REMARK   32  A    between atoms: _81  and  _82
REMARK   33  A    between atoms: _91  and  _93
REMARK   34  A    between atoms: _93  and  _94
REMARK   35  A    between atoms: _93  and  _96
REMARK   36  A    between atoms: _96  and  _97
REMARK   37  A    between atoms: _97  and  _98
REMARK   38  A    between atoms: _103  and  _105
REMARK   39  A    between atoms: _105  and  _106
REMARK   40  A    between atoms: _105  and  _108
REMARK   41  A    between atoms: _111  and  _113
REMARK   42  A    between atoms: _124  and  _127
REMARK   43  A    between atoms: _127  and  _128
REMARK   44  A    between atoms: _133  and  _134
REMARK   45  A    between atoms: _142  and  _144
REMARK   46  A    between atoms: _144  and  _145
REMARK   47  A    between atoms: _144  and  _147
REMARK   48  A    between atoms: _147  and  _148
REMARK   49  A    between atoms: _148  and  _149
REMARK   50  A    between atoms: _152  and  _154
REMARK   51  A    between atoms: _154  and  _155
REMARK   52  A    between atoms: _154  and  _157
REMARK   53  A    between atoms: _157  and  _158
REMARK   54  A    between atoms: _163  and  _165
REMARK   55  A    between atoms: _165  and  _166
REMARK   56  A    between atoms: _165  and  _168
REMARK   57  A    between atoms: _168  and  _169
REMARK   58  A    between atoms: _169  and  _170
REMARK   59  A    between atoms: _173  and  _175
REMARK   60  A    between atoms: _175  and  _176
REMARK   61  A    between atoms: _175  and  _178
REMARK   62  A    between atoms: _178  and  _179
REMARK   63  A    between atoms: _182  and  _184
REMARK   64  A    between atoms: _184  and  _185
REMARK   65  A    between atoms: _184  and  _187
REMARK   66  A    between atoms: _187  and  _188
REMARK   67  A    between atoms: _189  and  ZN_401
REMARK   68  A    between atoms: _193  and  _195
REMARK   69  A    between atoms: _195  and  _196
REMARK   70  A    between atoms: _195  and  _198
REMARK   71  A    between atoms: _201  and  _203
REMARK   72  A    between atoms: _203  and  _204
REMARK   73  A    between atoms: _203  and  _206
REMARK   74  A    between atoms: _209  and  _211
REMARK   75  A    between atoms: _211  and  _212
REMARK   76  A    between atoms: _211  and  _214
REMARK   77  A    between atoms: _214  and  _215
REMARK   78  A    between atoms: _220  and  _222
REMARK   79  A    between atoms: _222  and  _223
REMARK   80  A    between atoms: _222  and  _225
REMARK   81  A    between atoms: _225  and  _226
REMARK   82  A    between atoms: _232  and  _234
REMARK   83  A    between atoms: _234  and  _235
REMARK   84  A    between atoms: _238  and  _240
REMARK   85  A    between atoms: _240  and  _241
REMARK   86  A    between atoms: _240  and  _243
REMARK   87  A    between atoms: _243  and  _244
REMARK   88  A    between atoms: _247  and  _249
REMARK   89  A    between atoms: _249  and  _250
REMARK   90  A    between atoms: _253  and  _255
REMARK   91  A    between atoms: _255  and  _256
REMARK   92  A    between atoms: _255  and  _258
REMARK   93  A    between atoms: _261  and  _263
REMARK   94  A    between atoms: _263  and  _264
REMARK   95  A    between atoms: _263  and  _266
REMARK   96  A    between atoms: _266  and  _267
REMARK   97  A    between atoms: _270  and  _272
REMARK   98  A    between atoms: _272  and  _273
REMARK   99  A    between atoms: _275  and  _277
REMARK  100  A    between atoms: _277  and  _278
REMARK  101  A    between atoms: _277  and  _280
REMARK  102  A    between atoms: _280  and  _281
REMARK  103  A    between atoms: _283  and  _285
REMARK  104  A    between atoms: _285  and  _286
REMARK  105  A    between atoms: _285  and  _288
REMARK  106  A    between atoms: _288  and  _289
REMARK  107  A    between atoms: _292  and  _294
REMARK  108  A    between atoms: _294  and  _295
REMARK  109  A    between atoms: _294  and  _297
REMARK  110  A    between atoms: _297  and  _298
REMARK  111  A    between atoms: _301  and  _303
REMARK  112  A    between atoms: _303  and  _304
REMARK  113  A    between atoms: _303  and  _306
REMARK  114  A    between atoms: _310  and  _311
REMARK  115  A    between atoms: _317  and  _318
REMARK  116  A    between atoms: _323  and  _325
REMARK  117  A    between atoms: _325  and  _326
REMARK  118  A    between atoms: _325  and  _328
REMARK  119  A    between atoms: _328  and  _329
REMARK  120  A    between atoms: _332  and  _334
REMARK  121  A    between atoms: _334  and  _335
REMARK  122  A    between atoms: _334  and  _337
REMARK  123  A    between atoms: _337  and  _338
REMARK  124  A    between atoms: _341  and  _343
REMARK  125  A    between atoms: _343  and  _344
REMARK  126  A    between atoms: _343  and  _346
REMARK  127  A    between atoms: _346  and  _347
REMARK  128  A    between atoms: _349  and  _351
REMARK  129  A    between atoms: _351  and  _352
REMARK  130  A    between atoms: _351  and  _354
REMARK  131  A    between atoms: _357  and  _359
REMARK  132  A    between atoms: _359  and  _360
REMARK  133  A    between atoms: _359  and  _362
REMARK  134  A    between atoms: _362  and  _363
REMARK  135  A    between atoms: _373  and  _375
REMARK  136  A    between atoms: _375  and  _376
REMARK  137  A    between atoms: _375  and  _378
REMARK  138  A    between atoms: _378  and  _379
REMARK  139  A    between atoms: _384  and  _386
REMARK  140  A    between atoms: _386  and  _387
REMARK  141  A    between atoms: _386  and  _389
REMARK  142  A    between atoms: _389  and  _390
REMARK  143  A    between atoms: _390  and  _391
REMARK  144  A    between atoms: _391  and  _392
REMARK                            x       y       z     vdW  Elec       q    Type
REMARK                         _______ _______ _______ _____ _____    ______ ____
ROOT
ATOM      1  CA  ASP A   1      36.456  71.561  20.352  0.00  0.00    +0.144 C 
ENDROOT
BRANCH   1   2
ATOM      2  N   ASP A   1      36.656  71.790  18.932  0.00  0.00    -0.239 NA
ATOM      3  H   ASP A   1      37.487  72.324  18.607  0.00  0.00    +0.142 HD
ENDBRANCH   1   2
BRANCH   1   4
ATOM      4  C   ASP A   1      35.728  72.723  21.007  0.00  0.00    +0.225 C 
ATOM      5  O   ASP A   1      36.015  73.894  20.724  0.00  0.00    -0.287 OA
ENDBRANCH   1   4
BRANCH   1   6
ATOM      6  CB  ASP A   1      37.794  71.316  21.052  0.00  0.00    +0.139 C 
BRANCH   6   7
ATOM      7  CG  ASP A   1      38.409  69.984  20.666  0.00  0.00    +0.367 C 
ATOM      8  OD2 ASP A   1      37.662  68.990  20.600  0.00  0.00    -0.246 OA
ATOM      9  OD1 ASP A   1      39.633  69.927  20.433  0.00  0.00    -0.246 OA
ENDBRANCH   6   7
ENDBRANCH   1   6
TORSDOF 4
REMARK  Name = ../refined-set-2016/3czv/3czv_pocket.pdb
REMARK  144 active torsions:
REMARK  status: ('A' for Active; 'I' for Inactive)
REMARK    1  A    between atoms: _1  and  _3
REMARK    2  A    between atoms: _3  and  _4
REMARK    3  A    between atoms: _3  and  _6
REMARK    4  A    between atoms: _6  and  _7
REMARK    5  A    between atoms: _17  and  _19
REMARK    6  A    between atoms: _19  and  _20
REMARK    7  A    between atoms: _19  and  _22
REMARK    8  A    between atoms: _22  and  _23
REMARK    9  A    between atoms: _28  and  _29
REMARK   10  A    between atoms: _31  and  _33
REMARK   11  A    between atoms: _33  and  _34
REMARK   12  A    between atoms: _33  and  _36
REMARK   13  A    between atoms: _36  and  _37
REMARK   14  A    between atoms: _40  and  _41
REMARK   15  A    between atoms: _46  and  _48
REMARK   16  A    between atoms: _48  and  _49
REMARK   17  A    between atoms: _48  and  _51
REMARK   18  A    between atoms: _51  and  _52
REMARK   19  A    between atoms: _54  and  _56
REMARK   20  A    between atoms: _56  and  _57
REMARK   21  A    between atoms: _56  and  _59
REMARK   22  A    between atoms: _59  and  _60
REMARK   23  A    between atoms: _65  and  _67
REMARK   24  A    between atoms: _67  and  _68
REMARK   25  A    between atoms: _67  and  _70
REMARK   26  A    between atoms: _70  and  _71
REMARK   27  A    between atoms: _74  and  _76
REMARK   28  A    between atoms: _76  and  _77
REMARK   29  A    between atoms: _76  and  _79
REMARK   30  A    between atoms: _79  and  _80
REMARK   31  A    between atoms: _80  and  _81
REMARK   32  A    between atoms: _81  and  _82
REMARK   33  A    between atoms: _91  and  _93
REMARK   34  A    between atoms: _93  and  _94
REMARK   35  A    between atoms: _93  and  _96
REMARK   36  A    between atoms: _96  and  _97
REMARK   37  A    between atoms: _97  and  _98
REMARK   38  A    between atoms: _103  and  _105
REMARK   39  A    between atoms: _105  and  _106
REMARK   40  A    between atoms: _105  and  _108
REMARK   41  A    between atoms: _111  and  _113
REMARK   42  A    between atoms: _124  and  _127
REMARK   43  A    between atoms: _127  and  _128
REMARK   44  A    between atoms: _133  and  _134
REMARK   45  A    between atoms: _142  and  _144
REMARK   46  A    between atoms: _144  and  _145
REMARK   47  A    between atoms: _144  and  _147
REMARK   48  A    between atoms: _147  and  _148
REMARK   49  A    between atoms: _148  and  _149
REMARK   50  A    between atoms: _152  and  _154
REMARK   51  A    between atoms: _154  and  _155
REMARK   52  A    between atoms: _154  and  _157
REMARK   53  A    between atoms: _157  and  _158
REMARK   54  A    between atoms: _163  and  _165
REMARK   55  A    between atoms: _165  and  _166
REMARK   56  A    between atoms: _165  and  _168
REMARK   57  A    between atoms: _168  and  _169
REMARK   58  A    between atoms: _169  and  _170
REMARK   59  A    between atoms: _173  and  _175
REMARK   60  A    between atoms: _175  and  _176
REMARK   61  A    between atoms: _175  and  _178
REMARK   62  A    between atoms: _178  and  _179
REMARK   63  A    between atoms: _182  and  _184
REMARK   64  A    between atoms: _184  and  _185
REMARK   65  A    between atoms: _184  and  _187
REMARK   66  A    between atoms: _187  and  _188
REMARK   67  A    between atoms: _189  and  ZN_401
REMARK   68  A    between atoms: _193  and  _195
REMARK   69  A    between atoms: _195  and  _196
REMARK   70  A    between atoms: _195  and  _198
REMARK   71  A    between atoms: _201  and  _203
REMARK   72  A    between atoms: _203  and  _204
REMARK   73  A    between atoms: _203  and  _206
REMARK   74  A    between atoms: _209  and  _211
REMARK   75  A    between atoms: _211  and  _212
REMARK   76  A    between atoms: _211  and  _214
REMARK   77  A    between atoms: _214  and  _215
REMARK   78  A    between atoms: _220  and  _222
REMARK   79  A    between atoms: _222  and  _223
REMARK   80  A    between atoms: _222  and  _225
REMARK   81  A    between atoms: _225  and  _226
REMARK   82  A    between atoms: _232  and  _234
REMARK   83  A    between atoms: _234  and  _235
REMARK   84  A    between atoms: _238  and  _240
REMARK   85  A    between atoms: _240  and  _241
REMARK   86  A    between atoms: _240  and  _243
REMARK   87  A    between atoms: _243  and  _244
REMARK   88  A    between atoms: _247  and  _249
REMARK   89  A    between atoms: _249  and  _250
REMARK   90  A    between atoms: _253  and  _255
REMARK   91  A    between atoms: _255  and  _256
REMARK   92  A    between atoms: _255  and  _258
REMARK   93  A    between atoms: _261  and  _263
REMARK   94  A    between atoms: _263  and  _264
REMARK   95  A    between atoms: _263  and  _266
REMARK   96  A    between atoms: _266  and  _267
REMARK   97  A    between atoms: _270  and  _272
REMARK   98  A    between atoms: _272  and  _273
REMARK   99  A    between atoms: _275  and  _277
REMARK  100  A    between atoms: _277  and  _278
REMARK  101  A    between atoms: _277  and  _280
REMARK  102  A    between atoms: _280  and  _281
REMARK  103  A    between atoms: _283  and  _285
REMARK  104  A    between atoms: _285  and  _286
REMARK  105  A    between atoms: _285  and  _288
REMARK  106  A    between atoms: _288  and  _289
REMARK  107  A    between atoms: _292  and  _294
REMARK  108  A    between atoms: _294  and  _295
REMARK  109  A    between atoms: _294  and  _297
REMARK  110  A    between atoms: _297  and  _298
REMARK  111  A    between atoms: _301  and  _303
REMARK  112  A    between atoms: _303  and  _304
REMARK  113  A    between atoms: _303  and  _306
REMARK  114  A    between atoms: _310  and  _311
REMARK  115  A    between atoms: _317  and  _318
REMARK  116  A    between atoms: _323  and  _325
REMARK  117  A    between atoms: _325  and  _326
REMARK  118  A    between atoms: _325  and  _328
REMARK  119  A    between atoms: _328  and  _329
REMARK  120  A    between atoms: _332  and  _334
REMARK  121  A    between atoms: _334  and  _335
REMARK  122  A    between atoms: _334  and  _337
REMARK  123  A    between atoms: _337  and  _338
REMARK  124  A    between atoms: _341  and  _343
REMARK  125  A    between atoms: _343  and  _344
REMARK  126  A    between atoms: _343  and  _346
REMARK  127  A    between atoms: _346  and  _347
REMARK  128  A    between atoms: _349  and  _351
REMARK  129  A    between atoms: _351  and  _352
REMARK  130  A    between atoms: _351  and  _354
REMARK  131  A    between atoms: _357  and  _359
REMARK  132  A    between atoms: _359  and  _360
REMARK  133  A    between atoms: _359  and  _362
REMARK  134  A    between atoms: _362  and  _363
REMARK  135  A    between atoms: _373  and  _375
REMARK  136  A    between atoms: _375  and  _376
REMARK  137  A    between atoms: _375  and  _378
REMARK  138  A    between atoms: _378  and  _379
REMARK  139  A    between atoms: _384  and  _386
REMARK  140  A    between atoms: _386  and  _387
REMARK  141  A    between atoms: _386  and  _389
REMARK  142  A    between atoms: _389  and  _390
REMARK  143  A    between atoms: _390  and  _391
REMARK  144  A    between atoms: _391  and  _392
REMARK                            x       y       z     vdW  Elec       q    Type
REMARK                         _______ _______ _______ _____ _____    ______ ____
ROOT
ATOM      1  C   UNK A   4      33.921  66.407  13.411  0.00  0.00    +0.000 C 
ATOM      2  C   UNK A   4      34.876  65.355  13.993  0.00  0.00    +0.000 C 
ATOM      3  C   UNK A   4      34.202  64.125  14.515  0.00  0.00    +0.000 A 
ATOM      4  N   UNK A   4      33.841  63.977  15.837  0.00  0.00    +0.000 NA
ATOM      5  C   UNK A   4      33.285  62.790  16.008  0.00  0.00    +0.000 A 
ATOM      6  N   UNK A   4      33.273  62.163  14.846  0.00  0.00    +0.000 N 
ATOM      7 ZN   UNK A   4      32.499  60.459  14.173  0.00  0.00    +0.000 Zn
ATOM      8  N   UNK A   4      33.339  60.230  12.360  0.00  0.00    +0.000 N 
ATOM      9  C   UNK A   4      34.374  59.538  11.917  0.00  0.00    +0.000 A 
ATOM     10  N   UNK A   4      34.326  59.513  10.597  0.00  0.00    +0.000 NA
ATOM     11  C   UNK A   4      33.221  60.215  10.168  0.00  0.00    +0.000 A 
ATOM     12  C   UNK A   4      32.910  60.423   8.722  0.00  0.00    +0.000 C 
ATOM     13  C   UNK A   4      33.602  61.644   8.112  0.00  0.00    +0.000 C 
ATOM     14  N   UNK A   4      33.122  62.873   8.734  0.00  0.00    +0.000 N 
ATOM     15  C   LEU A   5      33.938  63.702   9.379  0.00  0.00    +0.000 C 
ATOM     16  CA  LEU A   5      33.289  64.957   9.950  0.00  0.00    +0.000 C 
ATOM     17  N   LEU A   5      33.920  65.452  11.170  0.00  0.00    +0.000 N 
ATOM     18  H   LEU A   5      34.957  65.488  11.236  0.00  0.00    +0.000 HD
ATOM     19  O   LEU A   5      35.148  63.496   9.511  0.00  0.00    +0.000 OA
ATOM     20  H   UNK A   4      32.111  63.108   8.671  0.00  0.00    +0.000 HD
ATOM     21  C   UNK A   4      32.600  60.662  11.287  0.00  0.00    +0.000 A 
ATOM     22  C   UNK A   4      33.840  62.977  13.894  0.00  0.00    +0.000 A 
ATOM     23  C   UNK A   4      33.179  65.857  12.198  0.00  0.00    +0.000 C 
ATOM     24  O   UNK A   4      31.945  65.803  12.192  0.00  0.00    +0.000 OA
ENDROOT
BRANCH   7  25
ATOM     25  N   UNK A   4      30.512  60.619  13.755  0.00  0.00    +0.000 N 
ATOM     26  C   UNK A   4      29.650  61.693  13.802  0.00  0.00    +0.000 A 
ATOM     27  C   UNK A   4      28.570  61.341  13.066  0.00  0.00    +0.000 A 
ATOM     28  N   UNK A   4      28.798  60.072  12.589  0.00  0.00    +0.000 NA
ATOM     29  C   UNK A   4      29.977  59.660  13.020  0.00  0.00    +0.000 A 
BRANCH  26  30
ATOM     30  C   UNK A   4      29.958  62.944  14.567  0.00  0.00    +0.000 C 
BRANCH  30  31
ATOM     31  C   UNK A   4      29.027  64.117  14.234  0.00  0.00    +0.000 C 
BRANCH  31  32
ATOM     32  C   UNK A   4      29.188  65.202  15.289  0.00  0.00    +0.000 C 
ATOM     33  N   UNK A   4      28.178  65.333  16.137  0.00  0.00    +0.000 N 
ATOM     34  H   UNK A   4      27.347  64.719  16.021  0.00  0.00    +0.000 HD
ATOM     35  O   UNK A   4      30.194  65.908  15.318  0.00  0.00    +0.000 OA
BRANCH  33  36
ATOM     36  C   UNK A   4      28.184  66.301  17.224  0.00  0.00    +0.000 C 
BRANCH  36  37
ATOM     37  C   UNK A   4      28.195  65.432  18.475  0.00  0.00    +0.000 C 
ATOM     38  N   LEU A   5      29.337  65.432  19.162  0.00  0.00    +0.000 N 
ATOM     39  H   LEU A   5      30.106  66.049  18.833  0.00  0.00    +0.000 HD
ATOM     40  O   UNK A   4      27.205  64.772  18.791  0.00  0.00    +0.000 OA
BRANCH  38  41
ATOM     41  CA  LEU A   5      29.571  64.615  20.351  0.00  0.00    +0.000 C 
BRANCH  41  42
ATOM     42  C   LEU A   5      29.216  65.290  21.671  0.00  0.00    +0.000 C 
ATOM     43  N   UNK A   6      28.375  64.629  22.466  0.00  0.00    +0.000 N 
ATOM     44  H   UNK A   6      28.000  63.712  22.149  0.00  0.00    +0.000 HD
ATOM     45  O   LEU A   5      29.714  66.378  21.969  0.00  0.00    +0.000 OA
BRANCH  43  46
ATOM     46  C   UNK A   6      27.961  65.150  23.769  0.00  0.00    +0.000 C 
BRANCH  46  47
ATOM     47  C   UNK A   6      28.199  64.101  24.851  0.00  0.00    +0.000 C 
ATOM     48  O   UNK A   6      28.301  62.910  24.558  0.00  0.00    +0.000 OA
ENDBRANCH  46  47
BRANCH  46  49
ATOM     49  C   UNK A   6      26.461  65.493  23.795  0.00  0.00    +0.000 C 
BRANCH  49  50
ATOM     50  C   UNK A   6      25.998  66.343  22.654  0.00  0.00    +0.000 A 
ATOM     51  C   UNK A   6      25.609  67.640  22.609  0.00  0.00    +0.000 A 
ATOM     52  N   UNK A   6      25.198  67.897  21.323  0.00  0.00    +0.000 NA
ATOM     53  C   UNK A   6      25.337  66.797  20.602  0.00  0.00    +0.000 A 
ATOM     54  N   UNK A   6      25.821  65.846  21.380  0.00  0.00    +0.000 NA
ENDBRANCH  49  50
ENDBRANCH  46  49
ENDBRANCH  43  46
ENDBRANCH  41  42
BRANCH  41  55
ATOM     55  CB  LEU A   5      31.068  64.182  20.409  0.00  0.00    +0.000 C 
ATOM     56  CG2 LEU A   5      31.303  63.217  21.559  0.00  0.00    +0.000 C 
ATOM     57  CG1 LEU A   5      31.486  63.556  19.083  0.00  0.00    +0.000 C 
ENDBRANCH  41  55
ENDBRANCH  38  41
ENDBRANCH  36  37
BRANCH  36  58
ATOM     58  C   UNK A   4      26.922  67.187  17.187  0.00  0.00    +0.000 C 
ATOM     59  C   UNK A   4      27.037  68.312  18.204  0.00  0.00    +0.000 C 
ATOM     60  C   UNK A   4      26.742  67.765  15.780  0.00  0.00    +0.000 C 
ENDBRANCH  36  58
ENDBRANCH  33  36
ENDBRANCH  31  32
BRANCH  31  61
ATOM     61  N   UNK A   4      29.309  64.640  12.902  0.00  0.00    +0.000 N 
ATOM     62  H   UNK A   4      30.255  65.016  12.691  0.00  0.00    +0.000 HD
ATOM     63  C   LEU A   2      28.379  64.645  11.952  0.00  0.00    +0.000 C 
ATOM     64  O   LEU A   2      27.254  64.188  12.127  0.00  0.00    +0.000 OA
BRANCH  63  65
ATOM     65  CA  LEU A   2      28.774  65.236  10.598  0.00  0.00    +0.000 C 
BRANCH  65  66
ATOM     66  N   LEU A   2      28.336  64.368   9.512  0.00  0.00    +0.000 N 
ATOM     67  H   LEU A   2      27.382  64.498   9.118  0.00  0.00    +0.000 HD
ATOM     68  C   GLU A   1      29.113  63.417   9.009  0.00  0.00    +0.000 C 
ATOM     69  O   GLU A   1      30.250  63.186   9.426  0.00  0.00    +0.000 OA
BRANCH  68  70
ATOM     70  CA  GLU A   1      28.513  62.605   7.864  0.00  0.00    +0.000 C 
BRANCH  70  71
ATOM     71  N   GLU A   1      29.349  62.663   6.670  0.00  0.00    +0.000 NA
ATOM     72  H   GLU A   1      30.378  62.778   6.770  0.00  0.00    +0.000 HD
ENDBRANCH  70  71
BRANCH  70  73
ATOM     73  CB  GLU A   1      28.334  61.146   8.291  0.00  0.00    +0.000 C 
BRANCH  73  74
ATOM     74  CG  GLU A   1      27.286  60.934   9.351  0.00  0.00    +0.000 C 
BRANCH  74  75
ATOM     75  CD  GLU A   1      27.091  59.468   9.674  0.00  0.00    +0.000 C 
ATOM     76  OE2 GLU A   1      26.939  59.136  10.868  0.00  0.00    +0.000 OA
ATOM     77  OE1 GLU A   1      27.076  58.649   8.727  0.00  0.00    +0.000 OA
ENDBRANCH  74  75
ENDBRANCH  73  74
ENDBRANCH  70  73
ENDBRANCH  68  70
ENDBRANCH  65  66
BRANCH  65  78
ATOM     78  CB  LEU A   2      28.134  66.616  10.437  0.00  0.00    +0.000 C 
BRANCH  78  79
ATOM     79  CG  LEU A   2      28.626  67.715  11.380  0.00  0.00    +0.000 C 
ATOM     80  CD2 LEU A   2      27.601  68.837  11.450  0.00  0.00    +0.000 C 
ATOM     81  CD1 LEU A   2      29.960  68.250  10.875  0.00  0.00    +0.000 C 
ENDBRANCH  78  79
ENDBRANCH  65  78
ENDBRANCH  63  65
ENDBRANCH  31  61
ENDBRANCH  30  31
ENDBRANCH  26  30
ENDBRANCH   7  25
BRANCH   1  84
ATOM     82  C   UNK A   3      33.240  67.928  15.182  0.00  0.00    +0.000 C 
ATOM     83  O   UNK A   3      34.322  68.516  15.159  0.00  0.00    +0.000 OA
ATOM     84  N   UNK A   4      32.968  66.882  14.407  0.00  0.00    +0.000 N 
ATOM     85  H   UNK A   4      32.057  66.393  14.514  0.00  0.00    +0.000 HD
BRANCH  82  86
ATOM     86  C   UNK A   3      32.150  68.364  16.158  0.00  0.00    +0.000 C 
BRANCH  86  89
ATOM     87  C   LEU A   2      32.315  68.084  18.567  0.00  0.00    +0.000 C 
ATOM     88  O   LEU A   2      31.300  67.388  18.623  0.00  0.00    +0.000 OA
ATOM     89  N   UNK A   3      32.787  68.596  17.441  0.00  0.00    +0.000 N 
ATOM     90  H   UNK A   3      33.644  69.185  17.477  0.00  0.00    +0.000 HD
BRANCH  87  91
ATOM     91  CA  LEU A   2      33.133  68.398  19.809  0.00  0.00    +0.000 C 
BRANCH  91  94
ATOM     92  C   GLU A   1      32.782  68.793  22.164  0.00  0.00    +0.000 C 
ATOM     93  O   GLU A   1      33.765  69.536  22.210  0.00  0.00    +0.000 OA
ATOM     94  N   LEU A   2      32.393  68.188  21.046  0.00  0.00    +0.000 N 
ATOM     95  H   LEU A   2      31.560  67.565  21.055  0.00  0.00    +0.000 HD
BRANCH  92  96
ATOM     96  CA  GLU A   1      31.968  68.520  23.420  0.00  0.00    +0.000 C 
BRANCH  96  97
ATOM     97  N   GLU A   1      30.540  68.681  23.268  0.00  0.00    +0.000 NA
ATOM     98  H   GLU A   1      30.015  68.086  22.595  0.00  0.00    +0.000 HD
ENDBRANCH  96  97
BRANCH  96  99
ATOM     99  CB  GLU A   1      32.261  67.120  23.931  0.00  0.00    +0.000 C 
BRANCH  99 100
ATOM    100  CG  GLU A   1      33.552  67.035  24.692  0.00  0.00    +0.000 C 
BRANCH 100 101
ATOM    101  CD  GLU A   1      34.747  67.030  23.779  0.00  0.00    +0.000 C 
BRANCH 101 102
ATOM    102  NE  GLU A   1      35.998  67.087  24.528  0.00  0.00    +0.330 N 
ATOM    103  CZ  GLU A   1      36.204  66.463  25.683  0.00  0.00    +0.000 C 
ATOM    104  NH2 GLU A   1      37.378  66.550  26.295  0.00  0.00    +0.330 N 
ATOM    105 HH21 GLU A   1      37.531  66.059  27.199  0.00  0.00    +0.000 HD
ATOM    106 HH22 GLU A   1      38.145  67.110  25.871  0.00  0.00    +0.000 HD
ATOM    107  NH1 GLU A   1      35.238  65.743  26.224  0.00  0.00    +0.330 N 
ATOM    108 HH11 GLU A   1      35.398  65.254  27.128  0.00  0.00    +0.000 HD
ATOM    109 HH12 GLU A   1      34.318  65.665  25.746  0.00  0.00    +0.000 HD
ATOM    110  HE  GLU A   1      36.777  67.651  24.133  0.00  0.00    +0.000 HD
ENDBRANCH 101 102
ENDBRANCH 100 101
ENDBRANCH  99 100
ENDBRANCH  96  99
ENDBRANCH  92  96
ENDBRANCH  91  94
BRANCH  91 111
ATOM    111  CB  LEU A   2      34.409  67.535  19.784  0.00  0.00    +0.000 C 
BRANCH 111 112
ATOM    112  CG  LEU A   2      34.260  66.255  18.966  0.00  0.00    +0.000 C 
BRANCH 112 113
ATOM    113  CD  LEU A   2      35.571  65.534  18.699  0.00  0.00    +0.000 C 
ATOM    114  NE2 LEU A   2      36.643  65.952  19.367  0.00  0.00    +0.000 N 
ATOM    115 HE21 LEU A   2      36.563  66.746  20.034  0.00  0.00    +0.000 HD
ATOM    116 HE22 LEU A   2      37.561  65.485  19.222  0.00  0.00    +0.000 HD
ATOM    117  OE1 LEU A   2      35.611  64.602  17.900  0.00  0.00    +0.000 OA
ENDBRANCH 112 113
ENDBRANCH 111 112
ENDBRANCH  91 111
ENDBRANCH  87  91
ENDBRANCH  86  89
BRANCH  86 118
ATOM    118  C   UNK A   3      31.476  69.653  15.618  0.00  0.00    +0.000 C 
ATOM    119  C   UNK A   3      30.288  70.031  16.510  0.00  0.00    +0.000 C 
ATOM    120  C   UNK A   3      31.000  69.428  14.190  0.00  0.00    +0.000 C 
ENDBRANCH  86 118
ENDBRANCH  82  86
ENDBRANCH   1  84
BRANCH  13 121
ATOM    121  C   UNK A   4      33.249  61.727   6.636  0.00  0.00    +0.000 C 
ATOM    122  O   UNK A   6      32.191  62.257   6.281  0.00  0.00    +0.000 OA
ENDBRANCH  13 121
BRANCH  16 123
ATOM    123  CB  LEU A   5      33.312  66.060   8.886  0.00  0.00    +0.000 C 
BRANCH 123 124
ATOM    124  CG  LEU A   5      32.636  65.795   7.537  0.00  0.00    +0.000 C 
ATOM    125  CD2 LEU A   5      31.121  65.823   7.715  0.00  0.00    +0.000 C 
ATOM    126  CD1 LEU A   5      33.066  66.868   6.529  0.00  0.00    +0.000 C 
ENDBRANCH 123 124
ENDBRANCH  16 123
TORSDOF 42
REMARK  Name = ../refined-set-2016/3czv/3czv_pocket.pdb
REMARK  144 active torsions:
REMARK  status: ('A' for Active; 'I' for Inactive)
REMARK    1  A    between atoms: _1  and  _3
REMARK    2  A    between atoms: _3  and  _4
REMARK    3  A    between atoms: _3  and  _6
REMARK    4  A    between atoms: _6  and  _7
REMARK    5  A    between atoms: _17  and  _19
REMARK    6  A    between atoms: _19  and  _20
REMARK    7  A    between atoms: _19  and  _22
REMARK    8  A    between atoms: _22  and  _23
REMARK    9  A    between atoms: _28  and  _29
REMARK   10  A    between atoms: _31  and  _33
REMARK   11  A    between atoms: _33  and  _34
REMARK   12  A    between atoms: _33  and  _36
REMARK   13  A    between atoms: _36  and  _37
REMARK   14  A    between atoms: _40  and  _41
REMARK   15  A    between atoms: _46  and  _48
REMARK   16  A    between atoms: _48  and  _49
REMARK   17  A    between atoms: _48  and  _51
REMARK   18  A    between atoms: _51  and  _52
REMARK   19  A    between atoms: _54  and  _56
REMARK   20  A    between atoms: _56  and  _57
REMARK   21  A    between atoms: _56  and  _59
REMARK   22  A    between atoms: _59  and  _60
REMARK   23  A    between atoms: _65  and  _67
REMARK   24  A    between atoms: _67  and  _68
REMARK   25  A    between atoms: _67  and  _70
REMARK   26  A    between atoms: _70  and  _71
REMARK   27  A    between atoms: _74  and  _76
REMARK   28  A    between atoms: _76  and  _77
REMARK   29  A    between atoms: _76  and  _79
REMARK   30  A    between atoms: _79  and  _80
REMARK   31  A    between atoms: _80  and  _81
REMARK   32  A    between atoms: _81  and  _82
REMARK   33  A    between atoms: _91  and  _93
REMARK   34  A    between atoms: _93  and  _94
REMARK   35  A    between atoms: _93  and  _96
REMARK   36  A    between atoms: _96  and  _97
REMARK   37  A    between atoms: _97  and  _98
REMARK   38  A    between atoms: _103  and  _105
REMARK   39  A    between atoms: _105  and  _106
REMARK   40  A    between atoms: _105  and  _108
REMARK   41  A    between atoms: _111  and  _113
REMARK   42  A    between atoms: _124  and  _127
REMARK   43  A    between atoms: _127  and  _128
REMARK   44  A    between atoms: _133  and  _134
REMARK   45  A    between atoms: _142  and  _144
REMARK   46  A    between atoms: _144  and  _145
REMARK   47  A    between atoms: _144  and  _147
REMARK   48  A    between atoms: _147  and  _148
REMARK   49  A    between atoms: _148  and  _149
REMARK   50  A    between atoms: _152  and  _154
REMARK   51  A    between atoms: _154  and  _155
REMARK   52  A    between atoms: _154  and  _157
REMARK   53  A    between atoms: _157  and  _158
REMARK   54  A    between atoms: _163  and  _165
REMARK   55  A    between atoms: _165  and  _166
REMARK   56  A    between atoms: _165  and  _168
REMARK   57  A    between atoms: _168  and  _169
REMARK   58  A    between atoms: _169  and  _170
REMARK   59  A    between atoms: _173  and  _175
REMARK   60  A    between atoms: _175  and  _176
REMARK   61  A    between atoms: _175  and  _178
REMARK   62  A    between atoms: _178  and  _179
REMARK   63  A    between atoms: _182  and  _184
REMARK   64  A    between atoms: _184  and  _185
REMARK   65  A    between atoms: _184  and  _187
REMARK   66  A    between atoms: _187  and  _188
REMARK   67  A    between atoms: _189  and  ZN_401
REMARK   68  A    between atoms: _193  and  _195
REMARK   69  A    between atoms: _195  and  _196
REMARK   70  A    between atoms: _195  and  _198
REMARK   71  A    between atoms: _201  and  _203
REMARK   72  A    between atoms: _203  and  _204
REMARK   73  A    between atoms: _203  and  _206
REMARK   74  A    between atoms: _209  and  _211
REMARK   75  A    between atoms: _211  and  _212
REMARK   76  A    between atoms: _211  and  _214
REMARK   77  A    between atoms: _214  and  _215
REMARK   78  A    between atoms: _220  and  _222
REMARK   79  A    between atoms: _222  and  _223
REMARK   80  A    between atoms: _222  and  _225
REMARK   81  A    between atoms: _225  and  _226
REMARK   82  A    between atoms: _232  and  _234
REMARK   83  A    between atoms: _234  and  _235
REMARK   84  A    between atoms: _238  and  _240
REMARK   85  A    between atoms: _240  and  _241
REMARK   86  A    between atoms: _240  and  _243
REMARK   87  A    between atoms: _243  and  _244
REMARK   88  A    between atoms: _247  and  _249
REMARK   89  A    between atoms: _249  and  _250
REMARK   90  A    between atoms: _253  and  _255
REMARK   91  A    between atoms: _255  and  _256
REMARK   92  A    between atoms: _255  and  _258
REMARK   93  A    between atoms: _261  and  _263
REMARK   94  A    between atoms: _263  and  _264
REMARK   95  A    between atoms: _263  and  _266
REMARK   96  A    between atoms: _266  and  _267
REMARK   97  A    between atoms: _270  and  _272
REMARK   98  A    between atoms: _272  and  _273
REMARK   99  A    between atoms: _275  and  _277
REMARK  100  A    between atoms: _277  and  _278
REMARK  101  A    between atoms: _277  and  _280
REMARK  102  A    between atoms: _280  and  _281
REMARK  103  A    between atoms: _283  and  _285
REMARK  104  A    between atoms: _285  and  _286
REMARK  105  A    between atoms: _285  and  _288
REMARK  106  A    between atoms: _288  and  _289
REMARK  107  A    between atoms: _292  and  _294
REMARK  108  A    between atoms: _294  and  _295
REMARK  109  A    between atoms: _294  and  _297
REMARK  110  A    between atoms: _297  and  _298
REMARK  111  A    between atoms: _301  and  _303
REMARK  112  A    between atoms: _303  and  _304
REMARK  113  A    between atoms: _303  and  _306
REMARK  114  A    between atoms: _310  and  _311
REMARK  115  A    between atoms: _317  and  _318
REMARK  116  A    between atoms: _323  and  _325
REMARK  117  A    between atoms: _325  and  _326
REMARK  118  A    between atoms: _325  and  _328
REMARK  119  A    between atoms: _328  and  _329
REMARK  120  A    between atoms: _332  and  _334
REMARK  121  A    between atoms: _334  and  _335
REMARK  122  A    between atoms: _334  and  _337
REMARK  123  A    between atoms: _337  and  _338
REMARK  124  A    between atoms: _341  and  _343
REMARK  125  A    between atoms: _343  and  _344
REMARK  126  A    between atoms: _343  and  _346
REMARK  127  A    between atoms: _346  and  _347
REMARK  128  A    between atoms: _349  and  _351
REMARK  129  A    between atoms: _351  and  _352
REMARK  130  A    between atoms: _351  and  _354
REMARK  131  A    between atoms: _357  and  _359
REMARK  132  A    between atoms: _359  and  _360
REMARK  133  A    between atoms: _359  and  _362
REMARK  134  A    between atoms: _362  and  _363
REMARK  135  A    between atoms: _373  and  _375
REMARK  136  A    between atoms: _375  and  _376
REMARK  137  A    between atoms: _375  and  _378
REMARK  138  A    between atoms: _378  and  _379
REMARK  139  A    between atoms: _384  and  _386
REMARK  140  A    between atoms: _386  and  _387
REMARK  141  A    between atoms: _386  and  _389
REMARK  142  A    between atoms: _389  and  _390
REMARK  143  A    between atoms: _390  and  _391
REMARK  144  A    between atoms: _391  and  _392
REMARK                            x       y       z     vdW  Elec       q    Type
REMARK                         _______ _______ _______ _____ _____    ______ ____
ROOT
ATOM      1  C   GLU A   1      28.211  55.286   8.264  0.00  0.00    +0.238 C 
ATOM      2  N   HIS A   2      27.102  55.860   8.719  0.00  0.00    -0.298 N 
ATOM      3  H   HIS A   2      27.136  56.834   9.081  0.00  0.00    +0.150 HD
ATOM      4  O   GLU A   1      28.244  54.127   7.859  0.00  0.00    -0.274 OA
ENDROOT
BRANCH   1   5
ATOM      5  CA  GLU A   1      29.467  56.142   8.251  0.00  0.00    +0.145 C 
BRANCH   5   6
ATOM      6  N   GLU A   1      29.181  57.301   7.424  0.00  0.00    -0.238 NA
ATOM      7  H   GLU A   1      28.895  58.196   7.870  0.00  0.00    +0.142 HD
ENDBRANCH   5   6
BRANCH   5   8
ATOM      8  CB  GLU A   1      29.867  56.575   9.662  0.00  0.00    +0.038 C 
BRANCH   8   9
ATOM      9  CG  GLU A   1      31.206  57.302   9.678  0.00  0.00    +0.116 C 
BRANCH   9  10
ATOM     10  CD  GLU A   1      32.064  56.933  10.872  0.00  0.00    +0.365 C 
ATOM     11  OE2 GLU A   1      31.657  57.230  12.014  0.00  0.00    -0.246 OA
ATOM     12  OE1 GLU A   1      33.147  56.340  10.663  0.00  0.00    -0.246 OA
ENDBRANCH   9  10
ENDBRANCH   8   9
ENDBRANCH   5   8
ENDBRANCH   1   5
BRANCH   2  13
ATOM     13  CA  HIS A   2      25.840  55.133   8.714  0.00  0.00    +0.143 C 
BRANCH  13  14
ATOM     14  C   HIS A   2      25.356  55.158   7.272  0.00  0.00    +0.227 C 
ATOM     15  O   HIS A   2      25.648  56.103   6.533  0.00  0.00    -0.286 OA
ENDBRANCH  13  14
BRANCH  13  16
ATOM     16  CB  HIS A   2      24.784  55.822   9.595  0.00  0.00    +0.075 C 
BRANCH  16  17
ATOM     17  CG  HIS A   2      25.082  55.767  11.062  0.00  0.00    +0.082 A 
ATOM     18  CD2 HIS A   2      24.679  54.900  12.022  0.00  0.00    +0.115 A 
ATOM     19  NE2 HIS A   2      25.278  55.287  13.196  0.00  0.00    -0.221 NA
ATOM     20  CE1 HIS A   2      26.019  56.357  12.967  0.00  0.00    +0.199 A 
ATOM     21  ND1 HIS A   2      25.918  56.668  11.687  0.00  0.00    -0.227 NA
ENDBRANCH  16  17
ENDBRANCH  13  16
ENDBRANCH   2  13
TORSDOF 9
REMARK  Name = ../refined-set-2016/3czv/3czv_pocket.pdb
REMARK  144 active torsions:
REMARK  status: ('A' for Active; 'I' for Inactive)
REMARK    1  A    between atoms: _1  and  _3
REMARK    2  A    between atoms: _3  and  _4
REMARK    3  A    between atoms: _3  and  _6
REMARK    4  A    between atoms: _6  and  _7
REMARK    5  A    between atoms: _17  and  _19
REMARK    6  A    between atoms: _19  and  _20
REMARK    7  A    between atoms: _19  and  _22
REMARK    8  A    between atoms: _22  and  _23
REMARK    9  A    between atoms: _28  and  _29
REMARK   10  A    between atoms: _31  and  _33
REMARK   11  A    between atoms: _33  and  _34
REMARK   12  A    between atoms: _33  and  _36
REMARK   13  A    between atoms: _36  and  _37
REMARK   14  A    between atoms: _40  and  _41
REMARK   15  A    between atoms: _46  and  _48
REMARK   16  A    between atoms: _48  and  _49
REMARK   17  A    between atoms: _48  and  _51
REMARK   18  A    between atoms: _51  and  _52
REMARK   19  A    between atoms: _54  and  _56
REMARK   20  A    between atoms: _56  and  _57
REMARK   21  A    between atoms: _56  and  _59
REMARK   22  A    between atoms: _59  and  _60
REMARK   23  A    between atoms: _65  and  _67
REMARK   24  A    between atoms: _67  and  _68
REMARK   25  A    between atoms: _67  and  _70
REMARK   26  A    between atoms: _70  and  _71
REMARK   27  A    between atoms: _74  and  _76
REMARK   28  A    between atoms: _76  and  _77
REMARK   29  A    between atoms: _76  and  _79
REMARK   30  A    between atoms: _79  and  _80
REMARK   31  A    between atoms: _80  and  _81
REMARK   32  A    between atoms: _81  and  _82
REMARK   33  A    between atoms: _91  and  _93
REMARK   34  A    between atoms: _93  and  _94
REMARK   35  A    between atoms: _93  and  _96
REMARK   36  A    between atoms: _96  and  _97
REMARK   37  A    between atoms: _97  and  _98
REMARK   38  A    between atoms: _103  and  _105
REMARK   39  A    between atoms: _105  and  _106
REMARK   40  A    between atoms: _105  and  _108
REMARK   41  A    between atoms: _111  and  _113
REMARK   42  A    between atoms: _124  and  _127
REMARK   43  A    between atoms: _127  and  _128
REMARK   44  A    between atoms: _133  and  _134
REMARK   45  A    between atoms: _142  and  _144
REMARK   46  A    between atoms: _144  and  _145
REMARK   47  A    between atoms: _144  and  _147
REMARK   48  A    between atoms: _147  and  _148
REMARK   49  A    between atoms: _148  and  _149
REMARK   50  A    between atoms: _152  and  _154
REMARK   51  A    between atoms: _154  and  _155
REMARK   52  A    between atoms: _154  and  _157
REMARK   53  A    between atoms: _157  and  _158
REMARK   54  A    between atoms: _163  and  _165
REMARK   55  A    between atoms: _165  and  _166
REMARK   56  A    between atoms: _165  and  _168
REMARK   57  A    between atoms: _168  and  _169
REMARK   58  A    between atoms: _169  and  _170
REMARK   59  A    between atoms: _173  and  _175
REMARK   60  A    between atoms: _175  and  _176
REMARK   61  A    between atoms: _175  and  _178
REMARK   62  A    between atoms: _178  and  _179
REMARK   63  A    between atoms: _182  and  _184
REMARK   64  A    between atoms: _184  and  _185
REMARK   65  A    between atoms: _184  and  _187
REMARK   66  A    between atoms: _187  and  _188
REMARK   67  A    between atoms: _189  and  ZN_401
REMARK   68  A    between atoms: _193  and  _195
REMARK   69  A    between atoms: _195  and  _196
REMARK   70  A    between atoms: _195  and  _198
REMARK   71  A    between atoms: _201  and  _203
REMARK   72  A    between atoms: _203  and  _204
REMARK   73  A    between atoms: _203  and  _206
REMARK   74  A    between atoms: _209  and  _211
REMARK   75  A    between atoms: _211  and  _212
REMARK   76  A    between atoms: _211  and  _214
REMARK   77  A    between atoms: _214  and  _215
REMARK   78  A    between atoms: _220  and  _222
REMARK   79  A    between atoms: _222  and  _223
REMARK   80  A    between atoms: _222  and  _225
REMARK   81  A    between atoms: _225  and  _226
REMARK   82  A    between atoms: _232  and  _234
REMARK   83  A    between atoms: _234  and  _235
REMARK   84  A    between atoms: _238  and  _240
REMARK   85  A    between atoms: _240  and  _241
REMARK   86  A    between atoms: _240  and  _243
REMARK   87  A    between atoms: _243  and  _244
REMARK   88  A    between atoms: _247  and  _249
REMARK   89  A    between atoms: _249  and  _250
REMARK   90  A    between atoms: _253  and  _255
REMARK   91  A    between atoms: _255  and  _256
REMARK   92  A    between atoms: _255  and  _258
REMARK   93  A    between atoms: _261  and  _263
REMARK   94  A    between atoms: _263  and  _264
REMARK   95  A    between atoms: _263  and  _266
REMARK   96  A    between atoms: _266  and  _267
REMARK   97  A    between atoms: _270  and  _272
REMARK   98  A    between atoms: _272  and  _273
REMARK   99  A    between atoms: _275  and  _277
REMARK  100  A    between atoms: _277  and  _278
REMARK  101  A    between atoms: _277  and  _280
REMARK  102  A    between atoms: _280  and  _281
REMARK  103  A    between atoms: _283  and  _285
REMARK  104  A    between atoms: _285  and  _286
REMARK  105  A    between atoms: _285  and  _288
REMARK  106  A    between atoms: _288  and  _289
REMARK  107  A    between atoms: _292  and  _294
REMARK  108  A    between atoms: _294  and  _295
REMARK  109  A    between atoms: _294  and  _297
REMARK  110  A    between atoms: _297  and  _298
REMARK  111  A    between atoms: _301  and  _303
REMARK  112  A    between atoms: _303  and  _304
REMARK  113  A    between atoms: _303  and  _306
REMARK  114  A    between atoms: _310  and  _311
REMARK  115  A    between atoms: _317  and  _318
REMARK  116  A    between atoms: _323  and  _325
REMARK  117  A    between atoms: _325  and  _326
REMARK  118  A    between atoms: _325  and  _328
REMARK  119  A    between atoms: _328  and  _329
REMARK  120  A    between atoms: _332  and  _334
REMARK  121  A    between atoms: _334  and  _335
REMARK  122  A    between atoms: _334  and  _337
REMARK  123  A    between atoms: _337  and  _338
REMARK  124  A    between atoms: _341  and  _343
REMARK  125  A    between atoms: _343  and  _344
REMARK  126  A    between atoms: _343  and  _346
REMARK  127  A    between atoms: _346  and  _347
REMARK  128  A    between atoms: _349  and  _351
REMARK  129  A    between atoms: _351  and  _352
REMARK  130  A    between atoms: _351  and  _354
REMARK  131  A    between atoms: _357  and  _359
REMARK  132  A    between atoms: _359  and  _360
REMARK  133  A    between atoms: _359  and  _362
REMARK  134  A    between atoms: _362  and  _363
REMARK  135  A    between atoms: _373  and  _375
REMARK  136  A    between atoms: _375  and  _376
REMARK  137  A    between atoms: _375  and  _378
REMARK  138  A    between atoms: _378  and  _379
REMARK  139  A    between atoms: _384  and  _386
REMARK  140  A    between atoms: _386  and  _387
REMARK  141  A    between atoms: _386  and  _389
REMARK  142  A    between atoms: _389  and  _390
REMARK  143  A    between atoms: _390  and  _391
REMARK  144  A    between atoms: _391  and  _392
REMARK                            x       y       z     vdW  Elec       q    Type
REMARK                         _______ _______ _______ _____ _____    ______ ____
ROOT
ATOM      1  CB  PHE A   1      34.100  64.064  28.034  0.00  0.00    +0.051 C 
ENDROOT
BRANCH   1   2
ATOM      2  CG  PHE A   1      34.220  63.275  26.756  0.00  0.00    -0.020 A 
ATOM      3  CD2 PHE A   1      35.413  62.630  26.429  0.00  0.00    -0.004 A 
ATOM      4  CE2 PHE A   1      35.530  61.896  25.249  0.00  0.00    -0.000 A 
ATOM      5  CZ  PHE A   1      34.445  61.806  24.380  0.00  0.00    -0.000 A 
ATOM      6  CE1 PHE A   1      33.255  62.446  24.696  0.00  0.00    -0.000 A 
ATOM      7  CD1 PHE A   1      33.148  63.178  25.880  0.00  0.00    -0.004 A 
ENDBRANCH   1   2
BRANCH   1   8
ATOM      8  CA  PHE A   1      33.692  63.227  29.249  0.00  0.00    +0.137 C 
BRANCH   8   9
ATOM      9  N   PHE A   1      33.973  63.962  30.469  0.00  0.00    -0.239 NA
ATOM     10  H   PHE A   1      34.478  64.870  30.416  0.00  0.00    +0.142 HD
ENDBRANCH   8   9
BRANCH   8  11
ATOM     11  C   PHE A   1      34.467  61.915  29.282  0.00  0.00    +0.224 C 
ATOM     12  O   PHE A   1      33.973  60.883  28.829  0.00  0.00    -0.287 OA
ENDBRANCH   8  11
ENDBRANCH   1   8
TORSDOF 4
REMARK  Name = ../refined-set-2016/3czv/3czv_pocket.pdb
REMARK  144 active torsions:
REMARK  status: ('A' for Active; 'I' for Inactive)
REMARK    1  A    between atoms: _1  and  _3
REMARK    2  A    between atoms: _3  and  _4
REMARK    3  A    between atoms: _3  and  _6
REMARK    4  A    between atoms: _6  and  _7
REMARK    5  A    between atoms: _17  and  _19
REMARK    6  A    between atoms: _19  and  _20
REMARK    7  A    between atoms: _19  and  _22
REMARK    8  A    between atoms: _22  and  _23
REMARK    9  A    between atoms: _28  and  _29
REMARK   10  A    between atoms: _31  and  _33
REMARK   11  A    between atoms: _33  and  _34
REMARK   12  A    between atoms: _33  and  _36
REMARK   13  A    between atoms: _36  and  _37
REMARK   14  A    between atoms: _40  and  _41
REMARK   15  A    between atoms: _46  and  _48
REMARK   16  A    between atoms: _48  and  _49
REMARK   17  A    between atoms: _48  and  _51
REMARK   18  A    between atoms: _51  and  _52
REMARK   19  A    between atoms: _54  and  _56
REMARK   20  A    between atoms: _56  and  _57
REMARK   21  A    between atoms: _56  and  _59
REMARK   22  A    between atoms: _59  and  _60
REMARK   23  A    between atoms: _65  and  _67
REMARK   24  A    between atoms: _67  and  _68
REMARK   25  A    between atoms: _67  and  _70
REMARK   26  A    between atoms: _70  and  _71
REMARK   27  A    between atoms: _74  and  _76
REMARK   28  A    between atoms: _76  and  _77
REMARK   29  A    between atoms: _76  and  _79
REMARK   30  A    between atoms: _79  and  _80
REMARK   31  A    between atoms: _80  and  _81
REMARK   32  A    between atoms: _81  and  _82
REMARK   33  A    between atoms: _91  and  _93
REMARK   34  A    between atoms: _93  and  _94
REMARK   35  A    between atoms: _93  and  _96
REMARK   36  A    between atoms: _96  and  _97
REMARK   37  A    between atoms: _97  and  _98
REMARK   38  A    between atoms: _103  and  _105
REMARK   39  A    between atoms: _105  and  _106
REMARK   40  A    between atoms: _105  and  _108
REMARK   41  A    between atoms: _111  and  _113
REMARK   42  A    between atoms: _124  and  _127
REMARK   43  A    between atoms: _127  and  _128
REMARK   44  A    between atoms: _133  and  _134
REMARK   45  A    between atoms: _142  and  _144
REMARK   46  A    between atoms: _144  and  _145
REMARK   47  A    between atoms: _144  and  _147
REMARK   48  A    between atoms: _147  and  _148
REMARK   49  A    between atoms: _148  and  _149
REMARK   50  A    between atoms: _152  and  _154
REMARK   51  A    between atoms: _154  and  _155
REMARK   52  A    between atoms: _154  and  _157
REMARK   53  A    between atoms: _157  and  _158
REMARK   54  A    between atoms: _163  and  _165
REMARK   55  A    between atoms: _165  and  _166
REMARK   56  A    between atoms: _165  and  _168
REMARK   57  A    between atoms: _168  and  _169
REMARK   58  A    between atoms: _169  and  _170
REMARK   59  A    between atoms: _173  and  _175
REMARK   60  A    between atoms: _175  and  _176
REMARK   61  A    between atoms: _175  and  _178
REMARK   62  A    between atoms: _178  and  _179
REMARK   63  A    between atoms: _182  and  _184
REMARK   64  A    between atoms: _184  and  _185
REMARK   65  A    between atoms: _184  and  _187
REMARK   66  A    between atoms: _187  and  _188
REMARK   67  A    between atoms: _189  and  ZN_401
REMARK   68  A    between atoms: _193  and  _195
REMARK   69  A    between atoms: _195  and  _196
REMARK   70  A    between atoms: _195  and  _198
REMARK   71  A    between atoms: _201  and  _203
REMARK   72  A    between atoms: _203  and  _204
REMARK   73  A    between atoms: _203  and  _206
REMARK   74  A    between atoms: _209  and  _211
REMARK   75  A    between atoms: _211  and  _212
REMARK   76  A    between atoms: _211  and  _214
REMARK   77  A    between atoms: _214  and  _215
REMARK   78  A    between atoms: _220  and  _222
REMARK   79  A    between atoms: _222  and  _223
REMARK   80  A    between atoms: _222  and  _225
REMARK   81  A    between atoms: _225  and  _226
REMARK   82  A    between atoms: _232  and  _234
REMARK   83  A    between atoms: _234  and  _235
REMARK   84  A    between atoms: _238  and  _240
REMARK   85  A    between atoms: _240  and  _241
REMARK   86  A    between atoms: _240  and  _243
REMARK   87  A    between atoms: _243  and  _244
REMARK   88  A    between atoms: _247  and  _249
REMARK   89  A    between atoms: _249  and  _250
REMARK   90  A    between atoms: _253  and  _255
REMARK   91  A    between atoms: _255  and  _256
REMARK   92  A    between atoms: _255  and  _258
REMARK   93  A    between atoms: _261  and  _263
REMARK   94  A    between atoms: _263  and  _264
REMARK   95  A    between atoms: _263  and  _266
REMARK   96  A    between atoms: _266  and  _267
REMARK   97  A    between atoms: _270  and  _272
REMARK   98  A    between atoms: _272  and  _273
REMARK   99  A    between atoms: _275  and  _277
REMARK  100  A    between atoms: _277  and  _278
REMARK  101  A    between atoms: _277  and  _280
REMARK  102  A    between atoms: _280  and  _281
REMARK  103  A    between atoms: _283  and  _285
REMARK  104  A    between atoms: _285  and  _286
REMARK  105  A    between atoms: _285  and  _288
REMARK  106  A    between atoms: _288  and  _289
REMARK  107  A    between atoms: _292  and  _294
REMARK  108  A    between atoms: _294  and  _295
REMARK  109  A    between atoms: _294  and  _297
REMARK  110  A    between atoms: _297  and  _298
REMARK  111  A    between atoms: _301  and  _303
REMARK  112  A    between atoms: _303  and  _304
REMARK  113  A    between atoms: _303  and  _306
REMARK  114  A    between atoms: _310  and  _311
REMARK  115  A    between atoms: _317  and  _318
REMARK  116  A    between atoms: _323  and  _325
REMARK  117  A    between atoms: _325  and  _326
REMARK  118  A    between atoms: _325  and  _328
REMARK  119  A    between atoms: _328  and  _329
REMARK  120  A    between atoms: _332  and  _334
REMARK  121  A    between atoms: _334  and  _335
REMARK  122  A    between atoms: _334  and  _337
REMARK  123  A    between atoms: _337  and  _338
REMARK  124  A    between atoms: _341  and  _343
REMARK  125  A    between atoms: _343  and  _344
REMARK  126  A    between atoms: _343  and  _346
REMARK  127  A    between atoms: _346  and  _347
REMARK  128  A    between atoms: _349  and  _351
REMARK  129  A    between atoms: _351  and  _352
REMARK  130  A    between atoms: _351  and  _354
REMARK  131  A    between atoms: _357  and  _359
REMARK  132  A    between atoms: _359  and  _360
REMARK  133  A    between atoms: _359  and  _362
REMARK  134  A    between atoms: _362  and  _363
REMARK  135  A    between atoms: _373  and  _375
REMARK  136  A    between atoms: _375  and  _376
REMARK  137  A    between atoms: _375  and  _378
REMARK  138  A    between atoms: _378  and  _379
REMARK  139  A    between atoms: _384  and  _386
REMARK  140  A    between atoms: _386  and  _387
REMARK  141  A    between atoms: _386  and  _389
REMARK  142  A    between atoms: _389  and  _390
REMARK  143  A    between atoms: _390  and  _391
REMARK  144  A    between atoms: _391  and  _392
REMARK                            x       y       z     vdW  Elec       q    Type
REMARK                         _______ _______ _______ _____ _____    ______ ____
ROOT
ATOM      1  CA  ALA A   1      32.845  57.661  27.609  0.00  0.00    +0.133 C 
ATOM      2  CB  ALA A   1      34.147  58.127  26.972  0.00  0.00    +0.027 C 
ENDROOT
BRANCH   1   3
ATOM      3  N   ALA A   1      32.519  58.511  28.750  0.00  0.00    -0.239 NA
ATOM      4  H   ALA A   1      33.161  59.290  28.999  0.00  0.00    +0.142 HD
ENDBRANCH   1   3
BRANCH   1   5
ATOM      5  C   ALA A   1      32.952  56.183  27.984  0.00  0.00    +0.224 C 
ATOM      6  O   ALA A   1      32.998  55.322  27.107  0.00  0.00    -0.287 OA
ENDBRANCH   1   5
TORSDOF 2
REMARK  Name = ../refined-set-2016/3czv/3czv_pocket.pdb
REMARK  144 active torsions:
REMARK  status: ('A' for Active; 'I' for Inactive)
REMARK    1  A    between atoms: _1  and  _3
REMARK    2  A    between atoms: _3  and  _4
REMARK    3  A    between atoms: _3  and  _6
REMARK    4  A    between atoms: _6  and  _7
REMARK    5  A    between atoms: _17  and  _19
REMARK    6  A    between atoms: _19  and  _20
REMARK    7  A    between atoms: _19  and  _22
REMARK    8  A    between atoms: _22  and  _23
REMARK    9  A    between atoms: _28  and  _29
REMARK   10  A    between atoms: _31  and  _33
REMARK   11  A    between atoms: _33  and  _34
REMARK   12  A    between atoms: _33  and  _36
REMARK   13  A    between atoms: _36  and  _37
REMARK   14  A    between atoms: _40  and  _41
REMARK   15  A    between atoms: _46  and  _48
REMARK   16  A    between atoms: _48  and  _49
REMARK   17  A    between atoms: _48  and  _51
REMARK   18  A    between atoms: _51  and  _52
REMARK   19  A    between atoms: _54  and  _56
REMARK   20  A    between atoms: _56  and  _57
REMARK   21  A    between atoms: _56  and  _59
REMARK   22  A    between atoms: _59  and  _60
REMARK   23  A    between atoms: _65  and  _67
REMARK   24  A    between atoms: _67  and  _68
REMARK   25  A    between atoms: _67  and  _70
REMARK   26  A    between atoms: _70  and  _71
REMARK   27  A    between atoms: _74  and  _76
REMARK   28  A    between atoms: _76  and  _77
REMARK   29  A    between atoms: _76  and  _79
REMARK   30  A    between atoms: _79  and  _80
REMARK   31  A    between atoms: _80  and  _81
REMARK   32  A    between atoms: _81  and  _82
REMARK   33  A    between atoms: _91  and  _93
REMARK   34  A    between atoms: _93  and  _94
REMARK   35  A    between atoms: _93  and  _96
REMARK   36  A    between atoms: _96  and  _97
REMARK   37  A    between atoms: _97  and  _98
REMARK   38  A    between atoms: _103  and  _105
REMARK   39  A    between atoms: _105  and  _106
REMARK   40  A    between atoms: _105  and  _108
REMARK   41  A    between atoms: _111  and  _113
REMARK   42  A    between atoms: _124  and  _127
REMARK   43  A    between atoms: _127  and  _128
REMARK   44  A    between atoms: _133  and  _134
REMARK   45  A    between atoms: _142  and  _144
REMARK   46  A    between atoms: _144  and  _145
REMARK   47  A    between atoms: _144  and  _147
REMARK   48  A    between atoms: _147  and  _148
REMARK   49  A    between atoms: _148  and  _149
REMARK   50  A    between atoms: _152  and  _154
REMARK   51  A    between atoms: _154  and  _155
REMARK   52  A    between atoms: _154  and  _157
REMARK   53  A    between atoms: _157  and  _158
REMARK   54  A    between atoms: _163  and  _165
REMARK   55  A    between atoms: _165  and  _166
REMARK   56  A    between atoms: _165  and  _168
REMARK   57  A    between atoms: _168  and  _169
REMARK   58  A    between atoms: _169  and  _170
REMARK   59  A    between atoms: _173  and  _175
REMARK   60  A    between atoms: _175  and  _176
REMARK   61  A    between atoms: _175  and  _178
REMARK   62  A    between atoms: _178  and  _179
REMARK   63  A    between atoms: _182  and  _184
REMARK   64  A    between atoms: _184  and  _185
REMARK   65  A    between atoms: _184  and  _187
REMARK   66  A    between atoms: _187  and  _188
REMARK   67  A    between atoms: _189  and  ZN_401
REMARK   68  A    between atoms: _193  and  _195
REMARK   69  A    between atoms: _195  and  _196
REMARK   70  A    between atoms: _195  and  _198
REMARK   71  A    between atoms: _201  and  _203
REMARK   72  A    between atoms: _203  and  _204
REMARK   73  A    between atoms: _203  and  _206
REMARK   74  A    between atoms: _209  and  _211
REMARK   75  A    between atoms: _211  and  _212
REMARK   76  A    between atoms: _211  and  _214
REMARK   77  A    between atoms: _214  and  _215
REMARK   78  A    between atoms: _220  and  _222
REMARK   79  A    between atoms: _222  and  _223
REMARK   80  A    between atoms: _222  and  _225
REMARK   81  A    between atoms: _225  and  _226
REMARK   82  A    between atoms: _232  and  _234
REMARK   83  A    between atoms: _234  and  _235
REMARK   84  A    between atoms: _238  and  _240
REMARK   85  A    between atoms: _240  and  _241
REMARK   86  A    between atoms: _240  and  _243
REMARK   87  A    between atoms: _243  and  _244
REMARK   88  A    between atoms: _247  and  _249
REMARK   89  A    between atoms: _249  and  _250
REMARK   90  A    between atoms: _253  and  _255
REMARK   91  A    between atoms: _255  and  _256
REMARK   92  A    between atoms: _255  and  _258
REMARK   93  A    between atoms: _261  and  _263
REMARK   94  A    between atoms: _263  and  _264
REMARK   95  A    between atoms: _263  and  _266
REMARK   96  A    between atoms: _266  and  _267
REMARK   97  A    between atoms: _270  and  _272
REMARK   98  A    between atoms: _272  and  _273
REMARK   99  A    between atoms: _275  and  _277
REMARK  100  A    between atoms: _277  and  _278
REMARK  101  A    between atoms: _277  and  _280
REMARK  102  A    between atoms: _280  and  _281
REMARK  103  A    between atoms: _283  and  _285
REMARK  104  A    between atoms: _285  and  _286
REMARK  105  A    between atoms: _285  and  _288
REMARK  106  A    between atoms: _288  and  _289
REMARK  107  A    between atoms: _292  and  _294
REMARK  108  A    between atoms: _294  and  _295
REMARK  109  A    between atoms: _294  and  _297
REMARK  110  A    between atoms: _297  and  _298
REMARK  111  A    between atoms: _301  and  _303
REMARK  112  A    between atoms: _303  and  _304
REMARK  113  A    between atoms: _303  and  _306
REMARK  114  A    between atoms: _310  and  _311
REMARK  115  A    between atoms: _317  and  _318
REMARK  116  A    between atoms: _323  and  _325
REMARK  117  A    between atoms: _325  and  _326
REMARK  118  A    between atoms: _325  and  _328
REMARK  119  A    between atoms: _328  and  _329
REMARK  120  A    between atoms: _332  and  _334
REMARK  121  A    between atoms: _334  and  _335
REMARK  122  A    between atoms: _334  and  _337
REMARK  123  A    between atoms: _337  and  _338
REMARK  124  A    between atoms: _341  and  _343
REMARK  125  A    between atoms: _343  and  _344
REMARK  126  A    between atoms: _343  and  _346
REMARK  127  A    between atoms: _346  and  _347
REMARK  128  A    between atoms: _349  and  _351
REMARK  129  A    between atoms: _351  and  _352
REMARK  130  A    between atoms: _351  and  _354
REMARK  131  A    between atoms: _357  and  _359
REMARK  132  A    between atoms: _359  and  _360
REMARK  133  A    between atoms: _359  and  _362
REMARK  134  A    between atoms: _362  and  _363
REMARK  135  A    between atoms: _373  and  _375
REMARK  136  A    between atoms: _375  and  _376
REMARK  137  A    between atoms: _375  and  _378
REMARK  138  A    between atoms: _378  and  _379
REMARK  139  A    between atoms: _384  and  _386
REMARK  140  A    between atoms: _386  and  _387
REMARK  141  A    between atoms: _386  and  _389
REMARK  142  A    between atoms: _389  and  _390
REMARK  143  A    between atoms: _390  and  _391
REMARK  144  A    between atoms: _391  and  _392
REMARK                            x       y       z     vdW  Elec       q    Type
REMARK                         _______ _______ _______ _____ _____    ______ ____
ROOT
ATOM      1  C   ALA A   2      25.859  61.643  21.637  0.00  0.00    +0.241 C 
ATOM      2  O   ALA A   2      26.447  62.722  21.750  0.00  0.00    -0.273 OA
ATOM      3  N   VAL A   3      25.757  61.004  20.478  0.00  0.00    -0.297 N 
ATOM      4  H   VAL A   3      25.285  60.078  20.433  0.00  0.00    +0.150 HD
ENDROOT
BRANCH   1   5
ATOM      5  CA  ALA A   2      25.245  60.964  22.851  0.00  0.00    +0.149 C 
ATOM      6  CB  ALA A   2      24.099  61.810  23.410  0.00  0.00    +0.031 C 
BRANCH   5   9
ATOM      7  C   LEU A   1      26.438  59.719  24.573  0.00  0.00    +0.238 C 
ATOM      8  O   LEU A   1      25.653  58.772  24.522  0.00  0.00    -0.274 OA
ATOM      9  N   ALA A   2      26.311  60.815  23.832  0.00  0.00    -0.297 N 
ATOM     10  H   ALA A   2      26.994  61.590  23.956  0.00  0.00    +0.150 HD
BRANCH   7  11
ATOM     11  CA  LEU A   1      27.645  59.703  25.502  0.00  0.00    +0.145 C 
BRANCH  11  12
ATOM     12  N   LEU A   1      27.537  58.829  26.666  0.00  0.00    -0.238 NA
ATOM     13  H   LEU A   1      27.359  57.813  26.534  0.00  0.00    +0.142 HD
ENDBRANCH  11  12
BRANCH  11  14
ATOM     14  CB  LEU A   1      28.873  59.316  24.669  0.00  0.00    +0.026 C 
BRANCH  14  15
ATOM     15  CG  LEU A   1      30.240  59.214  25.353  0.00  0.00    +0.002 C 
ATOM     16  CD2 LEU A   1      30.621  60.554  25.964  0.00  0.00    +0.000 C 
ATOM     17  CD1 LEU A   1      31.284  58.777  24.327  0.00  0.00    +0.000 C 
ENDBRANCH  14  15
ENDBRANCH  11  14
ENDBRANCH   7  11
ENDBRANCH   5   9
ENDBRANCH   1   5
BRANCH   3  18
ATOM     18  CA  VAL A   3      26.306  61.601  19.273  0.00  0.00    +0.149 C 
BRANCH  18  19
ATOM     19  C   VAL A   3      25.199  61.836  18.261  0.00  0.00    +0.241 C 
ATOM     20  O   VAL A   3      24.435  60.927  17.923  0.00  0.00    -0.273 OA
ATOM     21  N   LEU A   4      25.107  63.076  17.799  0.00  0.00    -0.298 N 
ATOM     22  H   LEU A   4      25.773  63.795  18.148  0.00  0.00    +0.150 HD
BRANCH  21  23
ATOM     23  CA  LEU A   4      24.105  63.460  16.821  0.00  0.00    +0.137 C 
BRANCH  23  24
ATOM     24  C   LEU A   4      24.771  63.358  15.453  0.00  0.00    +0.227 C 
ATOM     25  O   LEU A   4      25.835  63.937  15.226  0.00  0.00    -0.286 OA
ENDBRANCH  23  24
BRANCH  23  26
ATOM     26  CB  LEU A   4      23.656  64.897  17.082  0.00  0.00    +0.028 C 
BRANCH  26  27
ATOM     27  CG  LEU A   4      22.458  65.445  16.310  0.00  0.00    +0.002 C 
ATOM     28  CD2 LEU A   4      21.171  64.915  16.917  0.00  0.00    +0.000 C 
ATOM     29  CD1 LEU A   4      22.475  66.966  16.377  0.00  0.00    +0.000 C 
ENDBRANCH  26  27
ENDBRANCH  23  26
ENDBRANCH  21  23
ENDBRANCH  18  19
BRANCH  18  30
ATOM     30  CB  VAL A   3      27.404  60.722  18.637  0.00  0.00    +0.027 C 
ATOM     31  CG2 VAL A   3      28.503  60.442  19.655  0.00  0.00    +0.002 C 
ATOM     32  CG1 VAL A   3      27.993  61.432  17.424  0.00  0.00    +0.002 C 
ENDBRANCH  18  30
ENDBRANCH   3  18
TORSDOF 13
REMARK  Name = ../refined-set-2016/3czv/3czv_pocket.pdb
REMARK  144 active torsions:
REMARK  status: ('A' for Active; 'I' for Inactive)
REMARK    1  A    between atoms: _1  and  _3
REMARK    2  A    between atoms: _3  and  _4
REMARK    3  A    between atoms: _3  and  _6
REMARK    4  A    between atoms: _6  and  _7
REMARK    5  A    between atoms: _17  and  _19
REMARK    6  A    between atoms: _19  and  _20
REMARK    7  A    between atoms: _19  and  _22
REMARK    8  A    between atoms: _22  and  _23
REMARK    9  A    between atoms: _28  and  _29
REMARK   10  A    between atoms: _31  and  _33
REMARK   11  A    between atoms: _33  and  _34
REMARK   12  A    between atoms: _33  and  _36
REMARK   13  A    between atoms: _36  and  _37
REMARK   14  A    between atoms: _40  and  _41
REMARK   15  A    between atoms: _46  and  _48
REMARK   16  A    between atoms: _48  and  _49
REMARK   17  A    between atoms: _48  and  _51
REMARK   18  A    between atoms: _51  and  _52
REMARK   19  A    between atoms: _54  and  _56
REMARK   20  A    between atoms: _56  and  _57
REMARK   21  A    between atoms: _56  and  _59
REMARK   22  A    between atoms: _59  and  _60
REMARK   23  A    between atoms: _65  and  _67
REMARK   24  A    between atoms: _67  and  _68
REMARK   25  A    between atoms: _67  and  _70
REMARK   26  A    between atoms: _70  and  _71
REMARK   27  A    between atoms: _74  and  _76
REMARK   28  A    between atoms: _76  and  _77
REMARK   29  A    between atoms: _76  and  _79
REMARK   30  A    between atoms: _79  and  _80
REMARK   31  A    between atoms: _80  and  _81
REMARK   32  A    between atoms: _81  and  _82
REMARK   33  A    between atoms: _91  and  _93
REMARK   34  A    between atoms: _93  and  _94
REMARK   35  A    between atoms: _93  and  _96
REMARK   36  A    between atoms: _96  and  _97
REMARK   37  A    between atoms: _97  and  _98
REMARK   38  A    between atoms: _103  and  _105
REMARK   39  A    between atoms: _105  and  _106
REMARK   40  A    between atoms: _105  and  _108
REMARK   41  A    between atoms: _111  and  _113
REMARK   42  A    between atoms: _124  and  _127
REMARK   43  A    between atoms: _127  and  _128
REMARK   44  A    between atoms: _133  and  _134
REMARK   45  A    between atoms: _142  and  _144
REMARK   46  A    between atoms: _144  and  _145
REMARK   47  A    between atoms: _144  and  _147
REMARK   48  A    between atoms: _147  and  _148
REMARK   49  A    between atoms: _148  and  _149
REMARK   50  A    between atoms: _152  and  _154
REMARK   51  A    between atoms: _154  and  _155
REMARK   52  A    between atoms: _154  and  _157
REMARK   53  A    between atoms: _157  and  _158
REMARK   54  A    between atoms: _163  and  _165
REMARK   55  A    between atoms: _165  and  _166
REMARK   56  A    between atoms: _165  and  _168
REMARK   57  A    between atoms: _168  and  _169
REMARK   58  A    between atoms: _169  and  _170
REMARK   59  A    between atoms: _173  and  _175
REMARK   60  A    between atoms: _175  and  _176
REMARK   61  A    between atoms: _175  and  _178
REMARK   62  A    between atoms: _178  and  _179
REMARK   63  A    between atoms: _182  and  _184
REMARK   64  A    between atoms: _184  and  _185
REMARK   65  A    between atoms: _184  and  _187
REMARK   66  A    between atoms: _187  and  _188
REMARK   67  A    between atoms: _189  and  ZN_401
REMARK   68  A    between atoms: _193  and  _195
REMARK   69  A    between atoms: _195  and  _196
REMARK   70  A    between atoms: _195  and  _198
REMARK   71  A    between atoms: _201  and  _203
REMARK   72  A    between atoms: _203  and  _204
REMARK   73  A    between atoms: _203  and  _206
REMARK   74  A    between atoms: _209  and  _211
REMARK   75  A    between atoms: _211  and  _212
REMARK   76  A    between atoms: _211  and  _214
REMARK   77  A    between atoms: _214  and  _215
REMARK   78  A    between atoms: _220  and  _222
REMARK   79  A    between atoms: _222  and  _223
REMARK   80  A    between atoms: _222  and  _225
REMARK   81  A    between atoms: _225  and  _226
REMARK   82  A    between atoms: _232  and  _234
REMARK   83  A    between atoms: _234  and  _235
REMARK   84  A    between atoms: _238  and  _240
REMARK   85  A    between atoms: _240  and  _241
REMARK   86  A    between atoms: _240  and  _243
REMARK   87  A    between atoms: _243  and  _244
REMARK   88  A    between atoms: _247  and  _249
REMARK   89  A    between atoms: _249  and  _250
REMARK   90  A    between atoms: _253  and  _255
REMARK   91  A    between atoms: _255  and  _256
REMARK   92  A    between atoms: _255  and  _258
REMARK   93  A    between atoms: _261  and  _263
REMARK   94  A    between atoms: _263  and  _264
REMARK   95  A    between atoms: _263  and  _266
REMARK   96  A    between atoms: _266  and  _267
REMARK   97  A    between atoms: _270  and  _272
REMARK   98  A    between atoms: _272  and  _273
REMARK   99  A    between atoms: _275  and  _277
REMARK  100  A    between atoms: _277  and  _278
REMARK  101  A    between atoms: _277  and  _280
REMARK  102  A    between atoms: _280  and  _281
REMARK  103  A    between atoms: _283  and  _285
REMARK  104  A    between atoms: _285  and  _286
REMARK  105  A    between atoms: _285  and  _288
REMARK  106  A    between atoms: _288  and  _289
REMARK  107  A    between atoms: _292  and  _294
REMARK  108  A    between atoms: _294  and  _295
REMARK  109  A    between atoms: _294  and  _297
REMARK  110  A    between atoms: _297  and  _298
REMARK  111  A    between atoms: _301  and  _303
REMARK  112  A    between atoms: _303  and  _304
REMARK  113  A    between atoms: _303  and  _306
REMARK  114  A    between atoms: _310  and  _311
REMARK  115  A    between atoms: _317  and  _318
REMARK  116  A    between atoms: _323  and  _325
REMARK  117  A    between atoms: _325  and  _326
REMARK  118  A    between atoms: _325  and  _328
REMARK  119  A    between atoms: _328  and  _329
REMARK  120  A    between atoms: _332  and  _334
REMARK  121  A    between atoms: _334  and  _335
REMARK  122  A    between atoms: _334  and  _337
REMARK  123  A    between atoms: _337  and  _338
REMARK  124  A    between atoms: _341  and  _343
REMARK  125  A    between atoms: _343  and  _344
REMARK  126  A    between atoms: _343  and  _346
REMARK  127  A    between atoms: _346  and  _347
REMARK  128  A    between atoms: _349  and  _351
REMARK  129  A    between atoms: _351  and  _352
REMARK  130  A    between atoms: _351  and  _354
REMARK  131  A    between atoms: _357  and  _359
REMARK  132  A    between atoms: _359  and  _360
REMARK  133  A    between atoms: _359  and  _362
REMARK  134  A    between atoms: _362  and  _363
REMARK  135  A    between atoms: _373  and  _375
REMARK  136  A    between atoms: _375  and  _376
REMARK  137  A    between atoms: _375  and  _378
REMARK  138  A    between atoms: _378  and  _379
REMARK  139  A    between atoms: _384  and  _386
REMARK  140  A    between atoms: _386  and  _387
REMARK  141  A    between atoms: _386  and  _389
REMARK  142  A    between atoms: _389  and  _390
REMARK  143  A    between atoms: _390  and  _391
REMARK  144  A    between atoms: _391  and  _392
REMARK                            x       y       z     vdW  Elec       q    Type
REMARK                         _______ _______ _______ _____ _____    ______ ____
ROOT
ATOM      1  CA  VAL A   5      37.008  55.147  16.088  0.00  0.00    +0.149 C 
ENDROOT
BRANCH   1   2
ATOM      2  C   VAL A   5      37.539  54.580  17.404  0.00  0.00    +0.244 C 
ATOM      3  O   VAL A   5      36.852  54.620  18.431  0.00  0.00    -0.273 OA
ATOM      4  N   PRO A   6      38.759  54.019  17.391  0.00  0.00    -0.272 N 
ATOM      5  CA  PRO A   6      39.310  53.471  18.635  0.00  0.00    +0.152 C 
ATOM      6  CB  PRO A   6      40.733  53.102  18.240  0.00  0.00    +0.031 C 
ATOM      7  CG  PRO A   6      40.568  52.678  16.811  0.00  0.00    +0.024 C 
ATOM      8  CD  PRO A   6      39.672  53.772  16.259  0.00  0.00    +0.094 C 
BRANCH   5   9
ATOM      9  C   PRO A   6      39.262  54.562  19.700  0.00  0.00    +0.244 C 
ATOM     10  N   PRO A   7      39.077  54.185  20.972  0.00  0.00    -0.272 N 
ATOM     11  CD  PRO A   7      39.195  55.184  22.049  0.00  0.00    +0.094 C 
ATOM     12  CG  PRO A   7      38.711  54.416  23.265  0.00  0.00    +0.024 C 
ATOM     13  CB  PRO A   7      39.216  53.031  23.004  0.00  0.00    +0.031 C 
ATOM     14  CA  PRO A   7      38.899  52.831  21.524  0.00  0.00    +0.152 C 
ATOM     15  O   PRO A   6      39.433  55.747  19.389  0.00  0.00    -0.273 OA
BRANCH  14  16
ATOM     16  C   PRO A   7      37.559  52.111  21.294  0.00  0.00    +0.241 C 
ATOM     17  O   PRO A   7      37.277  51.100  21.941  0.00  0.00    -0.273 OA
ATOM     18  N   LEU A   8      36.737  52.632  20.385  0.00  0.00    -0.297 N 
ATOM     19  H   LEU A   8      37.018  53.511  19.904  0.00  0.00    +0.150 HD
BRANCH  18  20
ATOM     20  CA  LEU A   8      35.450  52.017  20.033  0.00  0.00    +0.149 C 
BRANCH  20  21
ATOM     21  C   LEU A   8      34.553  51.643  21.215  0.00  0.00    +0.241 C 
ATOM     22  N   LEU A   9      34.580  52.455  22.268  0.00  0.00    -0.298 N 
ATOM     23  H   LEU A   9      35.185  53.300  22.237  0.00  0.00    +0.150 HD
ATOM     24  O   LEU A   8      33.835  50.642  21.161  0.00  0.00    -0.273 OA
BRANCH  22  25
ATOM     25  CA  LEU A   9      33.785  52.196  23.469  0.00  0.00    +0.137 C 
BRANCH  25  26
ATOM     26  C   LEU A   9      32.274  52.197  23.208  0.00  0.00    +0.227 C 
ATOM     27  O   LEU A   9      31.746  53.083  22.531  0.00  0.00    -0.286 OA
ENDBRANCH  25  26
BRANCH  25  28
ATOM     28  CB  LEU A   9      34.145  53.228  24.546  0.00  0.00    +0.028 C 
BRANCH  28  29
ATOM     29  CG  LEU A   9      35.646  53.289  24.882  0.00  0.00    +0.002 C 
ATOM     30  CD2 LEU A   9      35.931  54.487  25.788  0.00  0.00    +0.000 C 
ATOM     31  CD1 LEU A   9      36.088  51.989  25.545  0.00  0.00    +0.000 C 
ENDBRANCH  28  29
ENDBRANCH  25  28
ENDBRANCH  22  25
ENDBRANCH  20  21
BRANCH  20  32
ATOM     32  CB  LEU A   8      35.712  50.765  19.186  0.00  0.00    +0.029 C 
BRANCH  32  33
ATOM     33  CG  LEU A   8      36.618  50.933  17.962  0.00  0.00    +0.002 C 
ATOM     34  CD2 LEU A   8      37.113  49.568  17.474  0.00  0.00    +0.000 C 
ATOM     35  CD1 LEU A   8      35.858  51.661  16.866  0.00  0.00    +0.000 C 
ENDBRANCH  32  33
ENDBRANCH  20  32
ENDBRANCH  18  20
ENDBRANCH  14  16
ENDBRANCH   5   9
ENDBRANCH   1   2
BRANCH   1  37
ATOM     36  C   THR A   4      34.791  54.704  15.177  0.00  0.00    +0.243 C 
ATOM     37  N   VAL A   5      35.551  55.151  16.170  0.00  0.00    -0.297 N 
ATOM     38  H   VAL A   5      35.095  55.514  17.031  0.00  0.00    +0.150 HD
ATOM     39  O   THR A   4      35.254  54.290  14.113  0.00  0.00    -0.273 OA
BRANCH  36  40
ATOM     40  CA  THR A   4      33.284  54.730  15.422  0.00  0.00    +0.176 C 
BRANCH  40  43
ATOM     41  C   LEU A   3      32.797  54.614  17.788  0.00  0.00    +0.241 C 
ATOM     42  O   LEU A   3      32.942  53.388  17.778  0.00  0.00    -0.273 OA
ATOM     43  N   THR A   4      32.943  55.355  16.696  0.00  0.00    -0.295 N 
ATOM     44  H   THR A   4      32.814  56.386  16.749  0.00  0.00    +0.150 HD
BRANCH  41  45
ATOM     45  CA  LEU A   3      32.431  55.330  19.089  0.00  0.00    +0.149 C 
BRANCH  45  47
ATOM     46  C   SER A   2      30.375  54.081  19.408  0.00  0.00    +0.243 C 
ATOM     47  N   LEU A   3      31.630  54.333  19.770  0.00  0.00    -0.297 N 
ATOM     48  H   LEU A   3      32.046  53.801  20.561  0.00  0.00    +0.150 HD
ATOM     49  O   SER A   2      29.786  54.697  18.526  0.00  0.00    -0.273 OA
BRANCH  46  50
ATOM     50  CA  SER A   2      29.707  52.952  20.165  0.00  0.00    +0.178 C 
BRANCH  50  53
ATOM     51  C   GLY A   1      27.391  52.319  20.451  0.00  0.00    +0.240 C 
ATOM     52  O   GLY A   1      27.486  52.384  21.680  0.00  0.00    -0.274 OA
ATOM     53  N   SER A   2      28.397  52.611  19.636  0.00  0.00    -0.295 N 
ATOM     54  H   SER A   2      28.246  52.596  18.607  0.00  0.00    +0.150 HD
BRANCH  51  55
ATOM     55  CA  GLY A   1      26.089  51.928  19.783  0.00  0.00    +0.169 C 
BRANCH  55  56
ATOM     56  N   GLY A   1      24.898  52.306  20.520  0.00  0.00    -0.236 NA
ATOM     57  H   GLY A   1      24.902  53.160  21.113  0.00  0.00    +0.142 HD
ENDBRANCH  55  56
ENDBRANCH  51  55
ENDBRANCH  50  53
BRANCH  50  58
ATOM     58  CB  SER A   2      30.615  51.737  20.047  0.00  0.00    +0.166 C 
BRANCH  58  59
ATOM     59  OG  SER A   2      30.914  51.520  18.672  0.00  0.00    -0.380 OA
ATOM     60  H   SER A   2      31.371  52.318  18.305  0.00  0.00    +0.211 HD
ENDBRANCH  58  59
ENDBRANCH  50  58
ENDBRANCH  46  50
ENDBRANCH  45  47
BRANCH  45  61
ATOM     61  CB  LEU A   3      33.705  55.637  19.893  0.00  0.00    +0.029 C 
BRANCH  61  62
ATOM     62  CG  LEU A   3      33.524  56.160  21.323  0.00  0.00    +0.002 C 
ATOM     63  CD2 LEU A   3      34.887  56.277  22.000  0.00  0.00    +0.000 C 
ATOM     64  CD1 LEU A   3      32.807  57.506  21.300  0.00  0.00    +0.000 C 
ENDBRANCH  61  62
ENDBRANCH  45  61
ENDBRANCH  41  45
ENDBRANCH  40  43
BRANCH  40  65
ATOM     65  CB  THR A   4      32.583  55.442  14.249  0.00  0.00    +0.137 C 
ATOM     66  CG2 THR A   4      31.069  55.426  14.456  0.00  0.00    +0.034 C 
BRANCH  65  67
ATOM     67  OG1 THR A   4      33.031  56.800  14.174  0.00  0.00    -0.382 OA
ATOM     68  HG1 THR A   4      32.579  57.254  13.420  0.00  0.00    +0.210 HD
ENDBRANCH  65  67
ENDBRANCH  40  65
ENDBRANCH  36  40
ENDBRANCH   1  37
BRANCH   1  69
ATOM     69  CB  VAL A   5      37.587  56.580  15.886  0.00  0.00    +0.027 C 
ATOM     70  CG2 VAL A   5      37.329  57.435  17.115  0.00  0.00    +0.002 C 
ATOM     71  CG1 VAL A   5      36.970  57.229  14.652  0.00  0.00    +0.002 C 
ENDBRANCH   1  69
TORSDOF 27
REMARK  Name = ../refined-set-2016/3czv/3czv_pocket.pdb
REMARK  144 active torsions:
REMARK  status: ('A' for Active; 'I' for Inactive)
REMARK    1  A    between atoms: _1  and  _3
REMARK    2  A    between atoms: _3  and  _4
REMARK    3  A    between atoms: _3  and  _6
REMARK    4  A    between atoms: _6  and  _7
REMARK    5  A    between atoms: _17  and  _19
REMARK    6  A    between atoms: _19  and  _20
REMARK    7  A    between atoms: _19  and  _22
REMARK    8  A    between atoms: _22  and  _23
REMARK    9  A    between atoms: _28  and  _29
REMARK   10  A    between atoms: _31  and  _33
REMARK   11  A    between atoms: _33  and  _34
REMARK   12  A    between atoms: _33  and  _36
REMARK   13  A    between atoms: _36  and  _37
REMARK   14  A    between atoms: _40  and  _41
REMARK   15  A    between atoms: _46  and  _48
REMARK   16  A    between atoms: _48  and  _49
REMARK   17  A    between atoms: _48  and  _51
REMARK   18  A    between atoms: _51  and  _52
REMARK   19  A    between atoms: _54  and  _56
REMARK   20  A    between atoms: _56  and  _57
REMARK   21  A    between atoms: _56  and  _59
REMARK   22  A    between atoms: _59  and  _60
REMARK   23  A    between atoms: _65  and  _67
REMARK   24  A    between atoms: _67  and  _68
REMARK   25  A    between atoms: _67  and  _70
REMARK   26  A    between atoms: _70  and  _71
REMARK   27  A    between atoms: _74  and  _76
REMARK   28  A    between atoms: _76  and  _77
REMARK   29  A    between atoms: _76  and  _79
REMARK   30  A    between atoms: _79  and  _80
REMARK   31  A    between atoms: _80  and  _81
REMARK   32  A    between atoms: _81  and  _82
REMARK   33  A    between atoms: _91  and  _93
REMARK   34  A    between atoms: _93  and  _94
REMARK   35  A    between atoms: _93  and  _96
REMARK   36  A    between atoms: _96  and  _97
REMARK   37  A    between atoms: _97  and  _98
REMARK   38  A    between atoms: _103  and  _105
REMARK   39  A    between atoms: _105  and  _106
REMARK   40  A    between atoms: _105  and  _108
REMARK   41  A    between atoms: _111  and  _113
REMARK   42  A    between atoms: _124  and  _127
REMARK   43  A    between atoms: _127  and  _128
REMARK   44  A    between atoms: _133  and  _134
REMARK   45  A    between atoms: _142  and  _144
REMARK   46  A    between atoms: _144  and  _145
REMARK   47  A    between atoms: _144  and  _147
REMARK   48  A    between atoms: _147  and  _148
REMARK   49  A    between atoms: _148  and  _149
REMARK   50  A    between atoms: _152  and  _154
REMARK   51  A    between atoms: _154  and  _155
REMARK   52  A    between atoms: _154  and  _157
REMARK   53  A    between atoms: _157  and  _158
REMARK   54  A    between atoms: _163  and  _165
REMARK   55  A    between atoms: _165  and  _166
REMARK   56  A    between atoms: _165  and  _168
REMARK   57  A    between atoms: _168  and  _169
REMARK   58  A    between atoms: _169  and  _170
REMARK   59  A    between atoms: _173  and  _175
REMARK   60  A    between atoms: _175  and  _176
REMARK   61  A    between atoms: _175  and  _178
REMARK   62  A    between atoms: _178  and  _179
REMARK   63  A    between atoms: _182  and  _184
REMARK   64  A    between atoms: _184  and  _185
REMARK   65  A    between atoms: _184  and  _187
REMARK   66  A    between atoms: _187  and  _188
REMARK   67  A    between atoms: _189  and  ZN_401
REMARK   68  A    between atoms: _193  and  _195
REMARK   69  A    between atoms: _195  and  _196
REMARK   70  A    between atoms: _195  and  _198
REMARK   71  A    between atoms: _201  and  _203
REMARK   72  A    between atoms: _203  and  _204
REMARK   73  A    between atoms: _203  and  _206
REMARK   74  A    between atoms: _209  and  _211
REMARK   75  A    between atoms: _211  and  _212
REMARK   76  A    between atoms: _211  and  _214
REMARK   77  A    between atoms: _214  and  _215
REMARK   78  A    between atoms: _220  and  _222
REMARK   79  A    between atoms: _222  and  _223
REMARK   80  A    between atoms: _222  and  _225
REMARK   81  A    between atoms: _225  and  _226
REMARK   82  A    between atoms: _232  and  _234
REMARK   83  A    between atoms: _234  and  _235
REMARK   84  A    between atoms: _238  and  _240
REMARK   85  A    between atoms: _240  and  _241
REMARK   86  A    between atoms: _240  and  _243
REMARK   87  A    between atoms: _243  and  _244
REMARK   88  A    between atoms: _247  and  _249
REMARK   89  A    between atoms: _249  and  _250
REMARK   90  A    between atoms: _253  and  _255
REMARK   91  A    between atoms: _255  and  _256
REMARK   92  A    between atoms: _255  and  _258
REMARK   93  A    between atoms: _261  and  _263
REMARK   94  A    between atoms: _263  and  _264
REMARK   95  A    between atoms: _263  and  _266
REMARK   96  A    between atoms: _266  and  _267
REMARK   97  A    between atoms: _270  and  _272
REMARK   98  A    between atoms: _272  and  _273
REMARK   99  A    between atoms: _275  and  _277
REMARK  100  A    between atoms: _277  and  _278
REMARK  101  A    between atoms: _277  and  _280
REMARK  102  A    between atoms: _280  and  _281
REMARK  103  A    between atoms: _283  and  _285
REMARK  104  A    between atoms: _285  and  _286
REMARK  105  A    between atoms: _285  and  _288
REMARK  106  A    between atoms: _288  and  _289
REMARK  107  A    between atoms: _292  and  _294
REMARK  108  A    between atoms: _294  and  _295
REMARK  109  A    between atoms: _294  and  _297
REMARK  110  A    between atoms: _297  and  _298
REMARK  111  A    between atoms: _301  and  _303
REMARK  112  A    between atoms: _303  and  _304
REMARK  113  A    between atoms: _303  and  _306
REMARK  114  A    between atoms: _310  and  _311
REMARK  115  A    between atoms: _317  and  _318
REMARK  116  A    between atoms: _323  and  _325
REMARK  117  A    between atoms: _325  and  _326
REMARK  118  A    between atoms: _325  and  _328
REMARK  119  A    between atoms: _328  and  _329
REMARK  120  A    between atoms: _332  and  _334
REMARK  121  A    between atoms: _334  and  _335
REMARK  122  A    between atoms: _334  and  _337
REMARK  123  A    between atoms: _337  and  _338
REMARK  124  A    between atoms: _341  and  _343
REMARK  125  A    between atoms: _343  and  _344
REMARK  126  A    between atoms: _343  and  _346
REMARK  127  A    between atoms: _346  and  _347
REMARK  128  A    between atoms: _349  and  _351
REMARK  129  A    between atoms: _351  and  _352
REMARK  130  A    between atoms: _351  and  _354
REMARK  131  A    between atoms: _357  and  _359
REMARK  132  A    between atoms: _359  and  _360
REMARK  133  A    between atoms: _359  and  _362
REMARK  134  A    between atoms: _362  and  _363
REMARK  135  A    between atoms: _373  and  _375
REMARK  136  A    between atoms: _375  and  _376
REMARK  137  A    between atoms: _375  and  _378
REMARK  138  A    between atoms: _378  and  _379
REMARK  139  A    between atoms: _384  and  _386
REMARK  140  A    between atoms: _386  and  _387
REMARK  141  A    between atoms: _386  and  _389
REMARK  142  A    between atoms: _389  and  _390
REMARK  143  A    between atoms: _390  and  _391
REMARK  144  A    between atoms: _391  and  _392
REMARK                            x       y       z     vdW  Elec       q    Type
REMARK                         _______ _______ _______ _____ _____    ______ ____
ROOT
ATOM      1  C   SER A   1      28.054  55.197  24.739  0.00  0.00    +0.241 C 
ATOM      2  O   SER A   1      27.726  56.227  25.333  0.00  0.00    -0.274 OA
ATOM      3  N   VAL A   2      27.715  54.956  23.479  0.00  0.00    -0.298 N 
ATOM      4  H   VAL A   2      27.962  54.045  23.042  0.00  0.00    +0.150 HD
ENDROOT
BRANCH   1   5
ATOM      5  CA  SER A   1      28.856  54.116  25.446  0.00  0.00    +0.174 C 
BRANCH   5   6
ATOM      6  N   SER A   1      29.470  53.202  24.498  0.00  0.00    -0.236 NA
ATOM      7  H   SER A   1      29.983  53.595  23.683  0.00  0.00    +0.142 HD
ENDBRANCH   5   6
BRANCH   5   8
ATOM      8  CB  SER A   1      29.958  54.770  26.279  0.00  0.00    +0.163 C 
BRANCH   8   9
ATOM      9  OG  SER A   1      30.913  55.392  25.432  0.00  0.00    -0.380 OA
ATOM     10  H   SER A   1      31.620  55.811  25.985  0.00  0.00    +0.211 HD
ENDBRANCH   8   9
ENDBRANCH   5   8
ENDBRANCH   1   5
BRANCH   3  11
ATOM     11  CA  VAL A   2      27.000  55.958  22.707  0.00  0.00    +0.137 C 
BRANCH  11  12
ATOM     12  CB  VAL A   2      27.722  56.238  21.373  0.00  0.00    +0.026 C 
ATOM     13  CG2 VAL A   2      29.171  56.638  21.630  0.00  0.00    +0.002 C 
ATOM     14  CG1 VAL A   2      26.986  57.332  20.603  0.00  0.00    +0.002 C 
ENDBRANCH  11  12
BRANCH  11  15
ATOM     15  C   VAL A   2      25.543  55.698  22.361  0.00  0.00    +0.227 C 
ATOM     16  O   VAL A   2      25.184  54.638  21.840  0.00  0.00    -0.286 OA
ENDBRANCH  11  15
ENDBRANCH   3  11
TORSDOF 7
REMARK  Name = ../refined-set-2016/3czv/3czv_pocket.pdb
REMARK  144 active torsions:
REMARK  status: ('A' for Active; 'I' for Inactive)
REMARK    1  A    between atoms: _1  and  _3
REMARK    2  A    between atoms: _3  and  _4
REMARK    3  A    between atoms: _3  and  _6
REMARK    4  A    between atoms: _6  and  _7
REMARK    5  A    between atoms: _17  and  _19
REMARK    6  A    between atoms: _19  and  _20
REMARK    7  A    between atoms: _19  and  _22
REMARK    8  A    between atoms: _22  and  _23
REMARK    9  A    between atoms: _28  and  _29
REMARK   10  A    between atoms: _31  and  _33
REMARK   11  A    between atoms: _33  and  _34
REMARK   12  A    between atoms: _33  and  _36
REMARK   13  A    between atoms: _36  and  _37
REMARK   14  A    between atoms: _40  and  _41
REMARK   15  A    between atoms: _46  and  _48
REMARK   16  A    between atoms: _48  and  _49
REMARK   17  A    between atoms: _48  and  _51
REMARK   18  A    between atoms: _51  and  _52
REMARK   19  A    between atoms: _54  and  _56
REMARK   20  A    between atoms: _56  and  _57
REMARK   21  A    between atoms: _56  and  _59
REMARK   22  A    between atoms: _59  and  _60
REMARK   23  A    between atoms: _65  and  _67
REMARK   24  A    between atoms: _67  and  _68
REMARK   25  A    between atoms: _67  and  _70
REMARK   26  A    between atoms: _70  and  _71
REMARK   27  A    between atoms: _74  and  _76
REMARK   28  A    between atoms: _76  and  _77
REMARK   29  A    between atoms: _76  and  _79
REMARK   30  A    between atoms: _79  and  _80
REMARK   31  A    between atoms: _80  and  _81
REMARK   32  A    between atoms: _81  and  _82
REMARK   33  A    between atoms: _91  and  _93
REMARK   34  A    between atoms: _93  and  _94
REMARK   35  A    between atoms: _93  and  _96
REMARK   36  A    between atoms: _96  and  _97
REMARK   37  A    between atoms: _97  and  _98
REMARK   38  A    between atoms: _103  and  _105
REMARK   39  A    between atoms: _105  and  _106
REMARK   40  A    between atoms: _105  and  _108
REMARK   41  A    between atoms: _111  and  _113
REMARK   42  A    between atoms: _124  and  _127
REMARK   43  A    between atoms: _127  and  _128
REMARK   44  A    between atoms: _133  and  _134
REMARK   45  A    between atoms: _142  and  _144
REMARK   46  A    between atoms: _144  and  _145
REMARK   47  A    between atoms: _144  and  _147
REMARK   48  A    between atoms: _147  and  _148
REMARK   49  A    between atoms: _148  and  _149
REMARK   50  A    between atoms: _152  and  _154
REMARK   51  A    between atoms: _154  and  _155
REMARK   52  A    between atoms: _154  and  _157
REMARK   53  A    between atoms: _157  and  _158
REMARK   54  A    between atoms: _163  and  _165
REMARK   55  A    between atoms: _165  and  _166
REMARK   56  A    between atoms: _165  and  _168
REMARK   57  A    between atoms: _168  and  _169
REMARK   58  A    between atoms: _169  and  _170
REMARK   59  A    between atoms: _173  and  _175
REMARK   60  A    between atoms: _175  and  _176
REMARK   61  A    between atoms: _175  and  _178
REMARK   62  A    between atoms: _178  and  _179
REMARK   63  A    between atoms: _182  and  _184
REMARK   64  A    between atoms: _184  and  _185
REMARK   65  A    between atoms: _184  and  _187
REMARK   66  A    between atoms: _187  and  _188
REMARK   67  A    between atoms: _189  and  ZN_401
REMARK   68  A    between atoms: _193  and  _195
REMARK   69  A    between atoms: _195  and  _196
REMARK   70  A    between atoms: _195  and  _198
REMARK   71  A    between atoms: _201  and  _203
REMARK   72  A    between atoms: _203  and  _204
REMARK   73  A    between atoms: _203  and  _206
REMARK   74  A    between atoms: _209  and  _211
REMARK   75  A    between atoms: _211  and  _212
REMARK   76  A    between atoms: _211  and  _214
REMARK   77  A    between atoms: _214  and  _215
REMARK   78  A    between atoms: _220  and  _222
REMARK   79  A    between atoms: _222  and  _223
REMARK   80  A    between atoms: _222  and  _225
REMARK   81  A    between atoms: _225  and  _226
REMARK   82  A    between atoms: _232  and  _234
REMARK   83  A    between atoms: _234  and  _235
REMARK   84  A    between atoms: _238  and  _240
REMARK   85  A    between atoms: _240  and  _241
REMARK   86  A    between atoms: _240  and  _243
REMARK   87  A    between atoms: _243  and  _244
REMARK   88  A    between atoms: _247  and  _249
REMARK   89  A    between atoms: _249  and  _250
REMARK   90  A    between atoms: _253  and  _255
REMARK   91  A    between atoms: _255  and  _256
REMARK   92  A    between atoms: _255  and  _258
REMARK   93  A    between atoms: _261  and  _263
REMARK   94  A    between atoms: _263  and  _264
REMARK   95  A    between atoms: _263  and  _266
REMARK   96  A    between atoms: _266  and  _267
REMARK   97  A    between atoms: _270  and  _272
REMARK   98  A    between atoms: _272  and  _273
REMARK   99  A    between atoms: _275  and  _277
REMARK  100  A    between atoms: _277  and  _278
REMARK  101  A    between atoms: _277  and  _280
REMARK  102  A    between atoms: _280  and  _281
REMARK  103  A    between atoms: _283  and  _285
REMARK  104  A    between atoms: _285  and  _286
REMARK  105  A    between atoms: _285  and  _288
REMARK  106  A    between atoms: _288  and  _289
REMARK  107  A    between atoms: _292  and  _294
REMARK  108  A    between atoms: _294  and  _295
REMARK  109  A    between atoms: _294  and  _297
REMARK  110  A    between atoms: _297  and  _298
REMARK  111  A    between atoms: _301  and  _303
REMARK  112  A    between atoms: _303  and  _304
REMARK  113  A    between atoms: _303  and  _306
REMARK  114  A    between atoms: _310  and  _311
REMARK  115  A    between atoms: _317  and  _318
REMARK  116  A    between atoms: _323  and  _325
REMARK  117  A    between atoms: _325  and  _326
REMARK  118  A    between atoms: _325  and  _328
REMARK  119  A    between atoms: _328  and  _329
REMARK  120  A    between atoms: _332  and  _334
REMARK  121  A    between atoms: _334  and  _335
REMARK  122  A    between atoms: _334  and  _337
REMARK  123  A    between atoms: _337  and  _338
REMARK  124  A    between atoms: _341  and  _343
REMARK  125  A    between atoms: _343  and  _344
REMARK  126  A    between atoms: _343  and  _346
REMARK  127  A    between atoms: _346  and  _347
REMARK  128  A    between atoms: _349  and  _351
REMARK  129  A    between atoms: _351  and  _352
REMARK  130  A    between atoms: _351  and  _354
REMARK  131  A    between atoms: _357  and  _359
REMARK  132  A    between atoms: _359  and  _360
REMARK  133  A    between atoms: _359  and  _362
REMARK  134  A    between atoms: _362  and  _363
REMARK  135  A    between atoms: _373  and  _375
REMARK  136  A    between atoms: _375  and  _376
REMARK  137  A    between atoms: _375  and  _378
REMARK  138  A    between atoms: _378  and  _379
REMARK  139  A    between atoms: _384  and  _386
REMARK  140  A    between atoms: _386  and  _387
REMARK  141  A    between atoms: _386  and  _389
REMARK  142  A    between atoms: _389  and  _390
REMARK  143  A    between atoms: _390  and  _391
REMARK  144  A    between atoms: _391  and  _392
REMARK                            x       y       z     vdW  Elec       q    Type
REMARK                         _______ _______ _______ _____ _____    ______ ____
ROOT
ATOM      1  CG  TRP A   1      25.140  56.250  17.458  0.00  0.00    -0.002 A 
ATOM      2  CD1 TRP A   1      25.863  55.273  18.085  0.00  0.00    +0.068 A 
ATOM      3  NE1 TRP A   1      27.211  55.471  17.876  0.00  0.00    -0.352 N 
ATOM      4  HE1 TRP A   1      27.975  54.871  18.246  0.00  0.00    +0.166 HD
ATOM      5  CE2 TRP A   1      27.379  56.589  17.100  0.00  0.00    +0.056 A 
ATOM      6  CZ2 TRP A   1      28.549  57.192  16.625  0.00  0.00    +0.017 A 
ATOM      7  CH2 TRP A   1      28.414  58.322  15.858  0.00  0.00    +0.001 A 
ATOM      8  CZ3 TRP A   1      27.149  58.860  15.558  0.00  0.00    +0.000 A 
ATOM      9  CE3 TRP A   1      25.984  58.264  16.030  0.00  0.00    +0.001 A 
ATOM     10  CD2 TRP A   1      26.092  57.106  16.817  0.00  0.00    +0.013 A 
ENDROOT
BRANCH   1  11
ATOM     11  CB  TRP A   1      23.653  56.447  17.493  0.00  0.00    +0.053 C 
BRANCH  11  12
ATOM     12  CA  TRP A   1      23.204  57.424  18.591  0.00  0.00    +0.137 C 
BRANCH  12  13
ATOM     13  N   TRP A   1      23.174  56.755  19.884  0.00  0.00    -0.239 NA
ATOM     14  H   TRP A   1      23.016  55.728  19.924  0.00  0.00    +0.142 HD
ENDBRANCH  12  13
BRANCH  12  15
ATOM     15  C   TRP A   1      21.874  58.053  18.201  0.00  0.00    +0.224 C 
ATOM     16  O   TRP A   1      20.808  57.477  18.409  0.00  0.00    -0.287 OA
ENDBRANCH  12  15
ENDBRANCH  11  12
ENDBRANCH   1  11
TORSDOF 4
REMARK  Name = ../refined-set-2016/3czv/3czv_pocket.pdb
REMARK  144 active torsions:
REMARK  status: ('A' for Active; 'I' for Inactive)
REMARK    1  A    between atoms: _1  and  _3
REMARK    2  A    between atoms: _3  and  _4
REMARK    3  A    between atoms: _3  and  _6
REMARK    4  A    between atoms: _6  and  _7
REMARK    5  A    between atoms: _17  and  _19
REMARK    6  A    between atoms: _19  and  _20
REMARK    7  A    between atoms: _19  and  _22
REMARK    8  A    between atoms: _22  and  _23
REMARK    9  A    between atoms: _28  and  _29
REMARK   10  A    between atoms: _31  and  _33
REMARK   11  A    between atoms: _33  and  _34
REMARK   12  A    between atoms: _33  and  _36
REMARK   13  A    between atoms: _36  and  _37
REMARK   14  A    between atoms: _40  and  _41
REMARK   15  A    between atoms: _46  and  _48
REMARK   16  A    between atoms: _48  and  _49
REMARK   17  A    between atoms: _48  and  _51
REMARK   18  A    between atoms: _51  and  _52
REMARK   19  A    between atoms: _54  and  _56
REMARK   20  A    between atoms: _56  and  _57
REMARK   21  A    between atoms: _56  and  _59
REMARK   22  A    between atoms: _59  and  _60
REMARK   23  A    between atoms: _65  and  _67
REMARK   24  A    between atoms: _67  and  _68
REMARK   25  A    between atoms: _67  and  _70
REMARK   26  A    between atoms: _70  and  _71
REMARK   27  A    between atoms: _74  and  _76
REMARK   28  A    between atoms: _76  and  _77
REMARK   29  A    between atoms: _76  and  _79
REMARK   30  A    between atoms: _79  and  _80
REMARK   31  A    between atoms: _80  and  _81
REMARK   32  A    between atoms: _81  and  _82
REMARK   33  A    between atoms: _91  and  _93
REMARK   34  A    between atoms: _93  and  _94
REMARK   35  A    between atoms: _93  and  _96
REMARK   36  A    between atoms: _96  and  _97
REMARK   37  A    between atoms: _97  and  _98
REMARK   38  A    between atoms: _103  and  _105
REMARK   39  A    between atoms: _105  and  _106
REMARK   40  A    between atoms: _105  and  _108
REMARK   41  A    between atoms: _111  and  _113
REMARK   42  A    between atoms: _124  and  _127
REMARK   43  A    between atoms: _127  and  _128
REMARK   44  A    between atoms: _133  and  _134
REMARK   45  A    between atoms: _142  and  _144
REMARK   46  A    between atoms: _144  and  _145
REMARK   47  A    between atoms: _144  and  _147
REMARK   48  A    between atoms: _147  and  _148
REMARK   49  A    between atoms: _148  and  _149
REMARK   50  A    between atoms: _152  and  _154
REMARK   51  A    between atoms: _154  and  _155
REMARK   52  A    between atoms: _154  and  _157
REMARK   53  A    between atoms: _157  and  _158
REMARK   54  A    between atoms: _163  and  _165
REMARK   55  A    between atoms: _165  and  _166
REMARK   56  A    between atoms: _165  and  _168
REMARK   57  A    between atoms: _168  and  _169
REMARK   58  A    between atoms: _169  and  _170
REMARK   59  A    between atoms: _173  and  _175
REMARK   60  A    between atoms: _175  and  _176
REMARK   61  A    between atoms: _175  and  _178
REMARK   62  A    between atoms: _178  and  _179
REMARK   63  A    between atoms: _182  and  _184
REMARK   64  A    between atoms: _184  and  _185
REMARK   65  A    between atoms: _184  and  _187
REMARK   66  A    between atoms: _187  and  _188
REMARK   67  A    between atoms: _189  and  ZN_401
REMARK   68  A    between atoms: _193  and  _195
REMARK   69  A    between atoms: _195  and  _196
REMARK   70  A    between atoms: _195  and  _198
REMARK   71  A    between atoms: _201  and  _203
REMARK   72  A    between atoms: _203  and  _204
REMARK   73  A    between atoms: _203  and  _206
REMARK   74  A    between atoms: _209  and  _211
REMARK   75  A    between atoms: _211  and  _212
REMARK   76  A    between atoms: _211  and  _214
REMARK   77  A    between atoms: _214  and  _215
REMARK   78  A    between atoms: _220  and  _222
REMARK   79  A    between atoms: _222  and  _223
REMARK   80  A    between atoms: _222  and  _225
REMARK   81  A    between atoms: _225  and  _226
REMARK   82  A    between atoms: _232  and  _234
REMARK   83  A    between atoms: _234  and  _235
REMARK   84  A    between atoms: _238  and  _240
REMARK   85  A    between atoms: _240  and  _241
REMARK   86  A    between atoms: _240  and  _243
REMARK   87  A    between atoms: _243  and  _244
REMARK   88  A    between atoms: _247  and  _249
REMARK   89  A    between atoms: _249  and  _250
REMARK   90  A    between atoms: _253  and  _255
REMARK   91  A    between atoms: _255  and  _256
REMARK   92  A    between atoms: _255  and  _258
REMARK   93  A    between atoms: _261  and  _263
REMARK   94  A    between atoms: _263  and  _264
REMARK   95  A    between atoms: _263  and  _266
REMARK   96  A    between atoms: _266  and  _267
REMARK   97  A    between atoms: _270  and  _272
REMARK   98  A    between atoms: _272  and  _273
REMARK   99  A    between atoms: _275  and  _277
REMARK  100  A    between atoms: _277  and  _278
REMARK  101  A    between atoms: _277  and  _280
REMARK  102  A    between atoms: _280  and  _281
REMARK  103  A    between atoms: _283  and  _285
REMARK  104  A    between atoms: _285  and  _286
REMARK  105  A    between atoms: _285  and  _288
REMARK  106  A    between atoms: _288  and  _289
REMARK  107  A    between atoms: _292  and  _294
REMARK  108  A    between atoms: _294  and  _295
REMARK  109  A    between atoms: _294  and  _297
REMARK  110  A    between atoms: _297  and  _298
REMARK  111  A    between atoms: _301  and  _303
REMARK  112  A    between atoms: _303  and  _304
REMARK  113  A    between atoms: _303  and  _306
REMARK  114  A    between atoms: _310  and  _311
REMARK  115  A    between atoms: _317  and  _318
REMARK  116  A    between atoms: _323  and  _325
REMARK  117  A    between atoms: _325  and  _326
REMARK  118  A    between atoms: _325  and  _328
REMARK  119  A    between atoms: _328  and  _329
REMARK  120  A    between atoms: _332  and  _334
REMARK  121  A    between atoms: _334  and  _335
REMARK  122  A    between atoms: _334  and  _337
REMARK  123  A    between atoms: _337  and  _338
REMARK  124  A    between atoms: _341  and  _343
REMARK  125  A    between atoms: _343  and  _344
REMARK  126  A    between atoms: _343  and  _346
REMARK  127  A    between atoms: _346  and  _347
REMARK  128  A    between atoms: _349  and  _351
REMARK  129  A    between atoms: _351  and  _352
REMARK  130  A    between atoms: _351  and  _354
REMARK  131  A    between atoms: _357  and  _359
REMARK  132  A    between atoms: _359  and  _360
REMARK  133  A    between atoms: _359  and  _362
REMARK  134  A    between atoms: _362  and  _363
REMARK  135  A    between atoms: _373  and  _375
REMARK  136  A    between atoms: _375  and  _376
REMARK  137  A    between atoms: _375  and  _378
REMARK  138  A    between atoms: _378  and  _379
REMARK  139  A    between atoms: _384  and  _386
REMARK  140  A    between atoms: _386  and  _387
REMARK  141  A    between atoms: _386  and  _389
REMARK  142  A    between atoms: _389  and  _390
REMARK  143  A    between atoms: _390  and  _391
REMARK  144  A    between atoms: _391  and  _392
REMARK                            x       y       z     vdW  Elec       q    Type
REMARK                         _______ _______ _______ _____ _____    ______ ____
ROOT
ATOM      1  CB  ASN A   1      38.326  59.525   7.945  0.00  0.00    +0.110 C 
ENDROOT
BRANCH   1   2
ATOM      2  CG  ASN A   1      37.323  60.675   7.837  0.00  0.00    +0.221 C 
ATOM      3  ND2 ASN A   1      37.492  61.694   8.677  0.00  0.00    -0.329 N 
ATOM      4 HD21 ASN A   1      38.270  61.676   9.367  0.00  0.00    +0.145 HD
ATOM      5 HD22 ASN A   1      36.846  62.508   8.644  0.00  0.00    +0.145 HD
ATOM      6  OD1 ASN A   1      36.420  60.649   7.005  0.00  0.00    -0.275 OA
ENDBRANCH   1   2
BRANCH   1   7
ATOM      7  CA  ASN A   1      37.851  58.247   7.227  0.00  0.00    +0.142 C 
BRANCH   7   8
ATOM      8  N   ASN A   1      37.786  58.477   5.789  0.00  0.00    -0.239 NA
ATOM      9  H   ASN A   1      36.887  58.764   5.351  0.00  0.00    +0.142 HD
ENDBRANCH   7   8
BRANCH   7  10
ATOM     10  C   ASN A   1      36.535  57.766   7.827  0.00  0.00    +0.225 C 
ATOM     11  O   ASN A   1      36.175  58.155   8.938  0.00  0.00    -0.287 OA
ENDBRANCH   7  10
ENDBRANCH   1   7
TORSDOF 4
REMARK  Name = ../refined-set-2016/3czv/3czv_pocket.pdb
REMARK  144 active torsions:
REMARK  status: ('A' for Active; 'I' for Inactive)
REMARK    1  A    between atoms: _1  and  _3
REMARK    2  A    between atoms: _3  and  _4
REMARK    3  A    between atoms: _3  and  _6
REMARK    4  A    between atoms: _6  and  _7
REMARK    5  A    between atoms: _17  and  _19
REMARK    6  A    between atoms: _19  and  _20
REMARK    7  A    between atoms: _19  and  _22
REMARK    8  A    between atoms: _22  and  _23
REMARK    9  A    between atoms: _28  and  _29
REMARK   10  A    between atoms: _31  and  _33
REMARK   11  A    between atoms: _33  and  _34
REMARK   12  A    between atoms: _33  and  _36
REMARK   13  A    between atoms: _36  and  _37
REMARK   14  A    between atoms: _40  and  _41
REMARK   15  A    between atoms: _46  and  _48
REMARK   16  A    between atoms: _48  and  _49
REMARK   17  A    between atoms: _48  and  _51
REMARK   18  A    between atoms: _51  and  _52
REMARK   19  A    between atoms: _54  and  _56
REMARK   20  A    between atoms: _56  and  _57
REMARK   21  A    between atoms: _56  and  _59
REMARK   22  A    between atoms: _59  and  _60
REMARK   23  A    between atoms: _65  and  _67
REMARK   24  A    between atoms: _67  and  _68
REMARK   25  A    between atoms: _67  and  _70
REMARK   26  A    between atoms: _70  and  _71
REMARK   27  A    between atoms: _74  and  _76
REMARK   28  A    between atoms: _76  and  _77
REMARK   29  A    between atoms: _76  and  _79
REMARK   30  A    between atoms: _79  and  _80
REMARK   31  A    between atoms: _80  and  _81
REMARK   32  A    between atoms: _81  and  _82
REMARK   33  A    between atoms: _91  and  _93
REMARK   34  A    between atoms: _93  and  _94
REMARK   35  A    between atoms: _93  and  _96
REMARK   36  A    between atoms: _96  and  _97
REMARK   37  A    between atoms: _97  and  _98
REMARK   38  A    between atoms: _103  and  _105
REMARK   39  A    between atoms: _105  and  _106
REMARK   40  A    between atoms: _105  and  _108
REMARK   41  A    between atoms: _111  and  _113
REMARK   42  A    between atoms: _124  and  _127
REMARK   43  A    between atoms: _127  and  _128
REMARK   44  A    between atoms: _133  and  _134
REMARK   45  A    between atoms: _142  and  _144
REMARK   46  A    between atoms: _144  and  _145
REMARK   47  A    between atoms: _144  and  _147
REMARK   48  A    between atoms: _147  and  _148
REMARK   49  A    between atoms: _148  and  _149
REMARK   50  A    between atoms: _152  and  _154
REMARK   51  A    between atoms: _154  and  _155
REMARK   52  A    between atoms: _154  and  _157
REMARK   53  A    between atoms: _157  and  _158
REMARK   54  A    between atoms: _163  and  _165
REMARK   55  A    between atoms: _165  and  _166
REMARK   56  A    between atoms: _165  and  _168
REMARK   57  A    between atoms: _168  and  _169
REMARK   58  A    between atoms: _169  and  _170
REMARK   59  A    between atoms: _173  and  _175
REMARK   60  A    between atoms: _175  and  _176
REMARK   61  A    between atoms: _175  and  _178
REMARK   62  A    between atoms: _178  and  _179
REMARK   63  A    between atoms: _182  and  _184
REMARK   64  A    between atoms: _184  and  _185
REMARK   65  A    between atoms: _184  and  _187
REMARK   66  A    between atoms: _187  and  _188
REMARK   67  A    between atoms: _189  and  ZN_401
REMARK   68  A    between atoms: _193  and  _195
REMARK   69  A    between atoms: _195  and  _196
REMARK   70  A    between atoms: _195  and  _198
REMARK   71  A    between atoms: _201  and  _203
REMARK   72  A    between atoms: _203  and  _204
REMARK   73  A    between atoms: _203  and  _206
REMARK   74  A    between atoms: _209  and  _211
REMARK   75  A    between atoms: _211  and  _212
REMARK   76  A    between atoms: _211  and  _214
REMARK   77  A    between atoms: _214  and  _215
REMARK   78  A    between atoms: _220  and  _222
REMARK   79  A    between atoms: _222  and  _223
REMARK   80  A    between atoms: _222  and  _225
REMARK   81  A    between atoms: _225  and  _226
REMARK   82  A    between atoms: _232  and  _234
REMARK   83  A    between atoms: _234  and  _235
REMARK   84  A    between atoms: _238  and  _240
REMARK   85  A    between atoms: _240  and  _241
REMARK   86  A    between atoms: _240  and  _243
REMARK   87  A    between atoms: _243  and  _244
REMARK   88  A    between atoms: _247  and  _249
REMARK   89  A    between atoms: _249  and  _250
REMARK   90  A    between atoms: _253  and  _255
REMARK   91  A    between atoms: _255  and  _256
REMARK   92  A    between atoms: _255  and  _258
REMARK   93  A    between atoms: _261  and  _263
REMARK   94  A    between atoms: _263  and  _264
REMARK   95  A    between atoms: _263  and  _266
REMARK   96  A    between atoms: _266  and  _267
REMARK   97  A    between atoms: _270  and  _272
REMARK   98  A    between atoms: _272  and  _273
REMARK   99  A    between atoms: _275  and  _277
REMARK  100  A    between atoms: _277  and  _278
REMARK  101  A    between atoms: _277  and  _280
REMARK  102  A    between atoms: _280  and  _281
REMARK  103  A    between atoms: _283  and  _285
REMARK  104  A    between atoms: _285  and  _286
REMARK  105  A    between atoms: _285  and  _288
REMARK  106  A    between atoms: _288  and  _289
REMARK  107  A    between atoms: _292  and  _294
REMARK  108  A    between atoms: _294  and  _295
REMARK  109  A    between atoms: _294  and  _297
REMARK  110  A    between atoms: _297  and  _298
REMARK  111  A    between atoms: _301  and  _303
REMARK  112  A    between atoms: _303  and  _304
REMARK  113  A    between atoms: _303  and  _306
REMARK  114  A    between atoms: _310  and  _311
REMARK  115  A    between atoms: _317  and  _318
REMARK  116  A    between atoms: _323  and  _325
REMARK  117  A    between atoms: _325  and  _326
REMARK  118  A    between atoms: _325  and  _328
REMARK  119  A    between atoms: _328  and  _329
REMARK  120  A    between atoms: _332  and  _334
REMARK  121  A    between atoms: _334  and  _335
REMARK  122  A    between atoms: _334  and  _337
REMARK  123  A    between atoms: _337  and  _338
REMARK  124  A    between atoms: _341  and  _343
REMARK  125  A    between atoms: _343  and  _344
REMARK  126  A    between atoms: _343  and  _346
REMARK  127  A    between atoms: _346  and  _347
REMARK  128  A    between atoms: _349  and  _351
REMARK  129  A    between atoms: _351  and  _352
REMARK  130  A    between atoms: _351  and  _354
REMARK  131  A    between atoms: _357  and  _359
REMARK  132  A    between atoms: _359  and  _360
REMARK  133  A    between atoms: _359  and  _362
REMARK  134  A    between atoms: _362  and  _363
REMARK  135  A    between atoms: _373  and  _375
REMARK  136  A    between atoms: _375  and  _376
REMARK  137  A    between atoms: _375  and  _378
REMARK  138  A    between atoms: _378  and  _379
REMARK  139  A    between atoms: _384  and  _386
REMARK  140  A    between atoms: _386  and  _387
REMARK  141  A    between atoms: _386  and  _389
REMARK  142  A    between atoms: _389  and  _390
REMARK  143  A    between atoms: _390  and  _391
REMARK  144  A    between atoms: _391  and  _392
REMARK                            x       y       z     vdW  Elec       q    Type
REMARK                         _______ _______ _______ _____ _____    ______ ____
ROOT
ATOM      1  NE  ARG A   1      34.301  49.823  13.168  0.00  0.00    -0.265 N 
ATOM      2  CZ  ARG A   1      33.975  49.270  14.335  0.00  0.00    +0.342 C 
ATOM      3  NH2 ARG A   1      33.133  49.875  15.167  0.00  0.00    -0.292 N 
ATOM      4 HH21 ARG A   1      32.889  49.430  16.075  0.00  0.00    +0.255 HD
ATOM      5 HH22 ARG A   1      32.718  50.794  14.910  0.00  0.00    +0.255 HD
ATOM      6  NH1 ARG A   1      34.508  48.103  14.674  0.00  0.00    -0.292 N 
ATOM      7 HH11 ARG A   1      34.260  47.663  15.583  0.00  0.00    +0.255 HD
ATOM      8 HH12 ARG A   1      35.174  47.629  14.031  0.00  0.00    +0.255 HD
ATOM      9  HE  ARG A   1      34.961  49.299  12.559  0.00  0.00    +0.259 HD
ENDROOT
BRANCH   1  10
ATOM     10  CD  ARG A   1      33.806  51.109  12.671  0.00  0.00    +0.174 C 
BRANCH  10  11
ATOM     11  CG  ARG A   1      34.243  51.342  11.223  0.00  0.00    +0.045 C 
BRANCH  11  12
ATOM     12  CB  ARG A   1      34.029  52.783  10.765  0.00  0.00    +0.029 C 
BRANCH  12  13
ATOM     13  CA  ARG A   1      34.140  52.972   9.246  0.00  0.00    +0.133 C 
BRANCH  13  14
ATOM     14  N   ARG A   1      34.103  54.385   8.909  0.00  0.00    -0.239 NA
ATOM     15  H   ARG A   1      33.595  55.039   9.538  0.00  0.00    +0.142 HD
ENDBRANCH  13  14
BRANCH  13  16
ATOM     16  C   ARG A   1      32.968  52.263   8.569  0.00  0.00    +0.224 C 
ATOM     17  O   ARG A   1      31.872  52.816   8.477  0.00  0.00    -0.287 OA
ENDBRANCH  13  16
ENDBRANCH  12  13
ENDBRANCH  11  12
ENDBRANCH  10  11
ENDBRANCH   1  10
TORSDOF 6
REMARK  Name = ../refined-set-2016/3czv/3czv_pocket.pdb
REMARK  144 active torsions:
REMARK  status: ('A' for Active; 'I' for Inactive)
REMARK    1  A    between atoms: _1  and  _3
REMARK    2  A    between atoms: _3  and  _4
REMARK    3  A    between atoms: _3  and  _6
REMARK    4  A    between atoms: _6  and  _7
REMARK    5  A    between atoms: _17  and  _19
REMARK    6  A    between atoms: _19  and  _20
REMARK    7  A    between atoms: _19  and  _22
REMARK    8  A    between atoms: _22  and  _23
REMARK    9  A    between atoms: _28  and  _29
REMARK   10  A    between atoms: _31  and  _33
REMARK   11  A    between atoms: _33  and  _34
REMARK   12  A    between atoms: _33  and  _36
REMARK   13  A    between atoms: _36  and  _37
REMARK   14  A    between atoms: _40  and  _41
REMARK   15  A    between atoms: _46  and  _48
REMARK   16  A    between atoms: _48  and  _49
REMARK   17  A    between atoms: _48  and  _51
REMARK   18  A    between atoms: _51  and  _52
REMARK   19  A    between atoms: _54  and  _56
REMARK   20  A    between atoms: _56  and  _57
REMARK   21  A    between atoms: _56  and  _59
REMARK   22  A    between atoms: _59  and  _60
REMARK   23  A    between atoms: _65  and  _67
REMARK   24  A    between atoms: _67  and  _68
REMARK   25  A    between atoms: _67  and  _70
REMARK   26  A    between atoms: _70  and  _71
REMARK   27  A    between atoms: _74  and  _76
REMARK   28  A    between atoms: _76  and  _77
REMARK   29  A    between atoms: _76  and  _79
REMARK   30  A    between atoms: _79  and  _80
REMARK   31  A    between atoms: _80  and  _81
REMARK   32  A    between atoms: _81  and  _82
REMARK   33  A    between atoms: _91  and  _93
REMARK   34  A    between atoms: _93  and  _94
REMARK   35  A    between atoms: _93  and  _96
REMARK   36  A    between atoms: _96  and  _97
REMARK   37  A    between atoms: _97  and  _98
REMARK   38  A    between atoms: _103  and  _105
REMARK   39  A    between atoms: _105  and  _106
REMARK   40  A    between atoms: _105  and  _108
REMARK   41  A    between atoms: _111  and  _113
REMARK   42  A    between atoms: _124  and  _127
REMARK   43  A    between atoms: _127  and  _128
REMARK   44  A    between atoms: _133  and  _134
REMARK   45  A    between atoms: _142  and  _144
REMARK   46  A    between atoms: _144  and  _145
REMARK   47  A    between atoms: _144  and  _147
REMARK   48  A    between atoms: _147  and  _148
REMARK   49  A    between atoms: _148  and  _149
REMARK   50  A    between atoms: _152  and  _154
REMARK   51  A    between atoms: _154  and  _155
REMARK   52  A    between atoms: _154  and  _157
REMARK   53  A    between atoms: _157  and  _158
REMARK   54  A    between atoms: _163  and  _165
REMARK   55  A    between atoms: _165  and  _166
REMARK   56  A    between atoms: _165  and  _168
REMARK   57  A    between atoms: _168  and  _169
REMARK   58  A    between atoms: _169  and  _170
REMARK   59  A    between atoms: _173  and  _175
REMARK   60  A    between atoms: _175  and  _176
REMARK   61  A    between atoms: _175  and  _178
REMARK   62  A    between atoms: _178  and  _179
REMARK   63  A    between atoms: _182  and  _184
REMARK   64  A    between atoms: _184  and  _185
REMARK   65  A    between atoms: _184  and  _187
REMARK   66  A    between atoms: _187  and  _188
REMARK   67  A    between atoms: _189  and  ZN_401
REMARK   68  A    between atoms: _193  and  _195
REMARK   69  A    between atoms: _195  and  _196
REMARK   70  A    between atoms: _195  and  _198
REMARK   71  A    between atoms: _201  and  _203
REMARK   72  A    between atoms: _203  and  _204
REMARK   73  A    between atoms: _203  and  _206
REMARK   74  A    between atoms: _209  and  _211
REMARK   75  A    between atoms: _211  and  _212
REMARK   76  A    between atoms: _211  and  _214
REMARK   77  A    between atoms: _214  and  _215
REMARK   78  A    between atoms: _220  and  _222
REMARK   79  A    between atoms: _222  and  _223
REMARK   80  A    between atoms: _222  and  _225
REMARK   81  A    between atoms: _225  and  _226
REMARK   82  A    between atoms: _232  and  _234
REMARK   83  A    between atoms: _234  and  _235
REMARK   84  A    between atoms: _238  and  _240
REMARK   85  A    between atoms: _240  and  _241
REMARK   86  A    between atoms: _240  and  _243
REMARK   87  A    between atoms: _243  and  _244
REMARK   88  A    between atoms: _247  and  _249
REMARK   89  A    between atoms: _249  and  _250
REMARK   90  A    between atoms: _253  and  _255
REMARK   91  A    between atoms: _255  and  _256
REMARK   92  A    between atoms: _255  and  _258
REMARK   93  A    between atoms: _261  and  _263
REMARK   94  A    between atoms: _263  and  _264
REMARK   95  A    between atoms: _263  and  _266
REMARK   96  A    between atoms: _266  and  _267
REMARK   97  A    between atoms: _270  and  _272
REMARK   98  A    between atoms: _272  and  _273
REMARK   99  A    between atoms: _275  and  _277
REMARK  100  A    between atoms: _277  and  _278
REMARK  101  A    between atoms: _277  and  _280
REMARK  102  A    between atoms: _280  and  _281
REMARK  103  A    between atoms: _283  and  _285
REMARK  104  A    between atoms: _285  and  _286
REMARK  105  A    between atoms: _285  and  _288
REMARK  106  A    between atoms: _288  and  _289
REMARK  107  A    between atoms: _292  and  _294
REMARK  108  A    between atoms: _294  and  _295
REMARK  109  A    between atoms: _294  and  _297
REMARK  110  A    between atoms: _297  and  _298
REMARK  111  A    between atoms: _301  and  _303
REMARK  112  A    between atoms: _303  and  _304
REMARK  113  A    between atoms: _303  and  _306
REMARK  114  A    between atoms: _310  and  _311
REMARK  115  A    between atoms: _317  and  _318
REMARK  116  A    between atoms: _323  and  _325
REMARK  117  A    between atoms: _325  and  _326
REMARK  118  A    between atoms: _325  and  _328
REMARK  119  A    between atoms: _328  and  _329
REMARK  120  A    between atoms: _332  and  _334
REMARK  121  A    between atoms: _334  and  _335
REMARK  122  A    between atoms: _334  and  _337
REMARK  123  A    between atoms: _337  and  _338
REMARK  124  A    between atoms: _341  and  _343
REMARK  125  A    between atoms: _343  and  _344
REMARK  126  A    between atoms: _343  and  _346
REMARK  127  A    between atoms: _346  and  _347
REMARK  128  A    between atoms: _349  and  _351
REMARK  129  A    between atoms: _351  and  _352
REMARK  130  A    between atoms: _351  and  _354
REMARK  131  A    between atoms: _357  and  _359
REMARK  132  A    between atoms: _359  and  _360
REMARK  133  A    between atoms: _359  and  _362
REMARK  134  A    between atoms: _362  and  _363
REMARK  135  A    between atoms: _373  and  _375
REMARK  136  A    between atoms: _375  and  _376
REMARK  137  A    between atoms: _375  and  _378
REMARK  138  A    between atoms: _378  and  _379
REMARK  139  A    between atoms: _384  and  _386
REMARK  140  A    between atoms: _386  and  _387
REMARK  141  A    between atoms: _386  and  _389
REMARK  142  A    between atoms: _389  and  _390
REMARK  143  A    between atoms: _390  and  _391
REMARK  144  A    between atoms: _391  and  _392
REMARK                            x       y       z     vdW  Elec       q    Type
REMARK                         _______ _______ _______ _____ _____    ______ ____
ROOT
ATOM      1  O   HOH     1      37.711  59.552  12.130  0.00  0.00    +0.000 OA
ENDROOT
TORSDOF 0
REMARK  Name = ../refined-set-2016/3czv/3czv_pocket.pdb
REMARK  144 active torsions:
REMARK  status: ('A' for Active; 'I' for Inactive)
REMARK    1  A    between atoms: _1  and  _3
REMARK    2  A    between atoms: _3  and  _4
REMARK    3  A    between atoms: _3  and  _6
REMARK    4  A    between atoms: _6  and  _7
REMARK    5  A    between atoms: _17  and  _19
REMARK    6  A    between atoms: _19  and  _20
REMARK    7  A    between atoms: _19  and  _22
REMARK    8  A    between atoms: _22  and  _23
REMARK    9  A    between atoms: _28  and  _29
REMARK   10  A    between atoms: _31  and  _33
REMARK   11  A    between atoms: _33  and  _34
REMARK   12  A    between atoms: _33  and  _36
REMARK   13  A    between atoms: _36  and  _37
REMARK   14  A    between atoms: _40  and  _41
REMARK   15  A    between atoms: _46  and  _48
REMARK   16  A    between atoms: _48  and  _49
REMARK   17  A    between atoms: _48  and  _51
REMARK   18  A    between atoms: _51  and  _52
REMARK   19  A    between atoms: _54  and  _56
REMARK   20  A    between atoms: _56  and  _57
REMARK   21  A    between atoms: _56  and  _59
REMARK   22  A    between atoms: _59  and  _60
REMARK   23  A    between atoms: _65  and  _67
REMARK   24  A    between atoms: _67  and  _68
REMARK   25  A    between atoms: _67  and  _70
REMARK   26  A    between atoms: _70  and  _71
REMARK   27  A    between atoms: _74  and  _76
REMARK   28  A    between atoms: _76  and  _77
REMARK   29  A    between atoms: _76  and  _79
REMARK   30  A    between atoms: _79  and  _80
REMARK   31  A    between atoms: _80  and  _81
REMARK   32  A    between atoms: _81  and  _82
REMARK   33  A    between atoms: _91  and  _93
REMARK   34  A    between atoms: _93  and  _94
REMARK   35  A    between atoms: _93  and  _96
REMARK   36  A    between atoms: _96  and  _97
REMARK   37  A    between atoms: _97  and  _98
REMARK   38  A    between atoms: _103  and  _105
REMARK   39  A    between atoms: _105  and  _106
REMARK   40  A    between atoms: _105  and  _108
REMARK   41  A    between atoms: _111  and  _113
REMARK   42  A    between atoms: _124  and  _127
REMARK   43  A    between atoms: _127  and  _128
REMARK   44  A    between atoms: _133  and  _134
REMARK   45  A    between atoms: _142  and  _144
REMARK   46  A    between atoms: _144  and  _145
REMARK   47  A    between atoms: _144  and  _147
REMARK   48  A    between atoms: _147  and  _148
REMARK   49  A    between atoms: _148  and  _149
REMARK   50  A    between atoms: _152  and  _154
REMARK   51  A    between atoms: _154  and  _155
REMARK   52  A    between atoms: _154  and  _157
REMARK   53  A    between atoms: _157  and  _158
REMARK   54  A    between atoms: _163  and  _165
REMARK   55  A    between atoms: _165  and  _166
REMARK   56  A    between atoms: _165  and  _168
REMARK   57  A    between atoms: _168  and  _169
REMARK   58  A    between atoms: _169  and  _170
REMARK   59  A    between atoms: _173  and  _175
REMARK   60  A    between atoms: _175  and  _176
REMARK   61  A    between atoms: _175  and  _178
REMARK   62  A    between atoms: _178  and  _179
REMARK   63  A    between atoms: _182  and  _184
REMARK   64  A    between atoms: _184  and  _185
REMARK   65  A    between atoms: _184  and  _187
REMARK   66  A    between atoms: _187  and  _188
REMARK   67  A    between atoms: _189  and  ZN_401
REMARK   68  A    between atoms: _193  and  _195
REMARK   69  A    between atoms: _195  and  _196
REMARK   70  A    between atoms: _195  and  _198
REMARK   71  A    between atoms: _201  and  _203
REMARK   72  A    between atoms: _203  and  _204
REMARK   73  A    between atoms: _203  and  _206
REMARK   74  A    between atoms: _209  and  _211
REMARK   75  A    between atoms: _211  and  _212
REMARK   76  A    between atoms: _211  and  _214
REMARK   77  A    between atoms: _214  and  _215
REMARK   78  A    between atoms: _220  and  _222
REMARK   79  A    between atoms: _222  and  _223
REMARK   80  A    between atoms: _222  and  _225
REMARK   81  A    between atoms: _225  and  _226
REMARK   82  A    between atoms: _232  and  _234
REMARK   83  A    between atoms: _234  and  _235
REMARK   84  A    between atoms: _238  and  _240
REMARK   85  A    between atoms: _240  and  _241
REMARK   86  A    between atoms: _240  and  _243
REMARK   87  A    between atoms: _243  and  _244
REMARK   88  A    between atoms: _247  and  _249
REMARK   89  A    between atoms: _249  and  _250
REMARK   90  A    between atoms: _253  and  _255
REMARK   91  A    between atoms: _255  and  _256
REMARK   92  A    between atoms: _255  and  _258
REMARK   93  A    between atoms: _261  and  _263
REMARK   94  A    between atoms: _263  and  _264
REMARK   95  A    between atoms: _263  and  _266
REMARK   96  A    between atoms: _266  and  _267
REMARK   97  A    between atoms: _270  and  _272
REMARK   98  A    between atoms: _272  and  _273
REMARK   99  A    between atoms: _275  and  _277
REMARK  100  A    between atoms: _277  and  _278
REMARK  101  A    between atoms: _277  and  _280
REMARK  102  A    between atoms: _280  and  _281
REMARK  103  A    between atoms: _283  and  _285
REMARK  104  A    between atoms: _285  and  _286
REMARK  105  A    between atoms: _285  and  _288
REMARK  106  A    between atoms: _288  and  _289
REMARK  107  A    between atoms: _292  and  _294
REMARK  108  A    between atoms: _294  and  _295
REMARK  109  A    between atoms: _294  and  _297
REMARK  110  A    between atoms: _297  and  _298
REMARK  111  A    between atoms: _301  and  _303
REMARK  112  A    between atoms: _303  and  _304
REMARK  113  A    between atoms: _303  and  _306
REMARK  114  A    between atoms: _310  and  _311
REMARK  115  A    between atoms: _317  and  _318
REMARK  116  A    between atoms: _323  and  _325
REMARK  117  A    between atoms: _325  and  _326
REMARK  118  A    between atoms: _325  and  _328
REMARK  119  A    between atoms: _328  and  _329
REMARK  120  A    between atoms: _332  and  _334
REMARK  121  A    between atoms: _334  and  _335
REMARK  122  A    between atoms: _334  and  _337
REMARK  123  A    between atoms: _337  and  _338
REMARK  124  A    between atoms: _341  and  _343
REMARK  125  A    between atoms: _343  and  _344
REMARK  126  A    between atoms: _343  and  _346
REMARK  127  A    between atoms: _346  and  _347
REMARK  128  A    between atoms: _349  and  _351
REMARK  129  A    between atoms: _351  and  _352
REMARK  130  A    between atoms: _351  and  _354
REMARK  131  A    between atoms: _357  and  _359
REMARK  132  A    between atoms: _359  and  _360
REMARK  133  A    between atoms: _359  and  _362
REMARK  134  A    between atoms: _362  and  _363
REMARK  135  A    between atoms: _373  and  _375
REMARK  136  A    between atoms: _375  and  _376
REMARK  137  A    between atoms: _375  and  _378
REMARK  138  A    between atoms: _378  and  _379
REMARK  139  A    between atoms: _384  and  _386
REMARK  140  A    between atoms: _386  and  _387
REMARK  141  A    between atoms: _386  and  _389
REMARK  142  A    between atoms: _389  and  _390
REMARK  143  A    between atoms: _390  and  _391
REMARK  144  A    between atoms: _391  and  _392
REMARK                            x       y       z     vdW  Elec       q    Type
REMARK                         _______ _______ _______ _____ _____    ______ ____
ROOT
ATOM      1  O   HOH     1      35.433  55.891  11.852  0.00  0.00    +0.000 OA
ENDROOT
TORSDOF 0
REMARK  Name = ../refined-set-2016/3czv/3czv_pocket.pdb
REMARK  144 active torsions:
REMARK  status: ('A' for Active; 'I' for Inactive)
REMARK    1  A    between atoms: _1  and  _3
REMARK    2  A    between atoms: _3  and  _4
REMARK    3  A    between atoms: _3  and  _6
REMARK    4  A    between atoms: _6  and  _7
REMARK    5  A    between atoms: _17  and  _19
REMARK    6  A    between atoms: _19  and  _20
REMARK    7  A    between atoms: _19  and  _22
REMARK    8  A    between atoms: _22  and  _23
REMARK    9  A    between atoms: _28  and  _29
REMARK   10  A    between atoms: _31  and  _33
REMARK   11  A    between atoms: _33  and  _34
REMARK   12  A    between atoms: _33  and  _36
REMARK   13  A    between atoms: _36  and  _37
REMARK   14  A    between atoms: _40  and  _41
REMARK   15  A    between atoms: _46  and  _48
REMARK   16  A    between atoms: _48  and  _49
REMARK   17  A    between atoms: _48  and  _51
REMARK   18  A    between atoms: _51  and  _52
REMARK   19  A    between atoms: _54  and  _56
REMARK   20  A    between atoms: _56  and  _57
REMARK   21  A    between atoms: _56  and  _59
REMARK   22  A    between atoms: _59  and  _60
REMARK   23  A    between atoms: _65  and  _67
REMARK   24  A    between atoms: _67  and  _68
REMARK   25  A    between atoms: _67  and  _70
REMARK   26  A    between atoms: _70  and  _71
REMARK   27  A    between atoms: _74  and  _76
REMARK   28  A    between atoms: _76  and  _77
REMARK   29  A    between atoms: _76  and  _79
REMARK   30  A    between atoms: _79  and  _80
REMARK   31  A    between atoms: _80  and  _81
REMARK   32  A    between atoms: _81  and  _82
REMARK   33  A    between atoms: _91  and  _93
REMARK   34  A    between atoms: _93  and  _94
REMARK   35  A    between atoms: _93  and  _96
REMARK   36  A    between atoms: _96  and  _97
REMARK   37  A    between atoms: _97  and  _98
REMARK   38  A    between atoms: _103  and  _105
REMARK   39  A    between atoms: _105  and  _106
REMARK   40  A    between atoms: _105  and  _108
REMARK   41  A    between atoms: _111  and  _113
REMARK   42  A    between atoms: _124  and  _127
REMARK   43  A    between atoms: _127  and  _128
REMARK   44  A    between atoms: _133  and  _134
REMARK   45  A    between atoms: _142  and  _144
REMARK   46  A    between atoms: _144  and  _145
REMARK   47  A    between atoms: _144  and  _147
REMARK   48  A    between atoms: _147  and  _148
REMARK   49  A    between atoms: _148  and  _149
REMARK   50  A    between atoms: _152  and  _154
REMARK   51  A    between atoms: _154  and  _155
REMARK   52  A    between atoms: _154  and  _157
REMARK   53  A    between atoms: _157  and  _158
REMARK   54  A    between atoms: _163  and  _165
REMARK   55  A    between atoms: _165  and  _166
REMARK   56  A    between atoms: _165  and  _168
REMARK   57  A    between atoms: _168  and  _169
REMARK   58  A    between atoms: _169  and  _170
REMARK   59  A    between atoms: _173  and  _175
REMARK   60  A    between atoms: _175  and  _176
REMARK   61  A    between atoms: _175  and  _178
REMARK   62  A    between atoms: _178  and  _179
REMARK   63  A    between atoms: _182  and  _184
REMARK   64  A    between atoms: _184  and  _185
REMARK   65  A    between atoms: _184  and  _187
REMARK   66  A    between atoms: _187  and  _188
REMARK   67  A    between atoms: _189  and  ZN_401
REMARK   68  A    between atoms: _193  and  _195
REMARK   69  A    between atoms: _195  and  _196
REMARK   70  A    between atoms: _195  and  _198
REMARK   71  A    between atoms: _201  and  _203
REMARK   72  A    between atoms: _203  and  _204
REMARK   73  A    between atoms: _203  and  _206
REMARK   74  A    between atoms: _209  and  _211
REMARK   75  A    between atoms: _211  and  _212
REMARK   76  A    between atoms: _211  and  _214
REMARK   77  A    between atoms: _214  and  _215
REMARK   78  A    between atoms: _220  and  _222
REMARK   79  A    between atoms: _222  and  _223
REMARK   80  A    between atoms: _222  and  _225
REMARK   81  A    between atoms: _225  and  _226
REMARK   82  A    between atoms: _232  and  _234
REMARK   83  A    between atoms: _234  and  _235
REMARK   84  A    between atoms: _238  and  _240
REMARK   85  A    between atoms: _240  and  _241
REMARK   86  A    between atoms: _240  and  _243
REMARK   87  A    between atoms: _243  and  _244
REMARK   88  A    between atoms: _247  and  _249
REMARK   89  A    between atoms: _249  and  _250
REMARK   90  A    between atoms: _253  and  _255
REMARK   91  A    between atoms: _255  and  _256
REMARK   92  A    between atoms: _255  and  _258
REMARK   93  A    between atoms: _261  and  _263
REMARK   94  A    between atoms: _263  and  _264
REMARK   95  A    between atoms: _263  and  _266
REMARK   96  A    between atoms: _266  and  _267
REMARK   97  A    between atoms: _270  and  _272
REMARK   98  A    between atoms: _272  and  _273
REMARK   99  A    between atoms: _275  and  _277
REMARK  100  A    between atoms: _277  and  _278
REMARK  101  A    between atoms: _277  and  _280
REMARK  102  A    between atoms: _280  and  _281
REMARK  103  A    between atoms: _283  and  _285
REMARK  104  A    between atoms: _285  and  _286
REMARK  105  A    between atoms: _285  and  _288
REMARK  106  A    between atoms: _288  and  _289
REMARK  107  A    between atoms: _292  and  _294
REMARK  108  A    between atoms: _294  and  _295
REMARK  109  A    between atoms: _294  and  _297
REMARK  110  A    between atoms: _297  and  _298
REMARK  111  A    between atoms: _301  and  _303
REMARK  112  A    between atoms: _303  and  _304
REMARK  113  A    between atoms: _303  and  _306
REMARK  114  A    between atoms: _310  and  _311
REMARK  115  A    between atoms: _317  and  _318
REMARK  116  A    between atoms: _323  and  _325
REMARK  117  A    between atoms: _325  and  _326
REMARK  118  A    between atoms: _325  and  _328
REMARK  119  A    between atoms: _328  and  _329
REMARK  120  A    between atoms: _332  and  _334
REMARK  121  A    between atoms: _334  and  _335
REMARK  122  A    between atoms: _334  and  _337
REMARK  123  A    between atoms: _337  and  _338
REMARK  124  A    between atoms: _341  and  _343
REMARK  125  A    between atoms: _343  and  _344
REMARK  126  A    between atoms: _343  and  _346
REMARK  127  A    between atoms: _346  and  _347
REMARK  128  A    between atoms: _349  and  _351
REMARK  129  A    between atoms: _351  and  _352
REMARK  130  A    between atoms: _351  and  _354
REMARK  131  A    between atoms: _357  and  _359
REMARK  132  A    between atoms: _359  and  _360
REMARK  133  A    between atoms: _359  and  _362
REMARK  134  A    between atoms: _362  and  _363
REMARK  135  A    between atoms: _373  and  _375
REMARK  136  A    between atoms: _375  and  _376
REMARK  137  A    between atoms: _375  and  _378
REMARK  138  A    between atoms: _378  and  _379
REMARK  139  A    between atoms: _384  and  _386
REMARK  140  A    between atoms: _386  and  _387
REMARK  141  A    between atoms: _386  and  _389
REMARK  142  A    between atoms: _389  and  _390
REMARK  143  A    between atoms: _390  and  _391
REMARK  144  A    between atoms: _391  and  _392
REMARK                            x       y       z     vdW  Elec       q    Type
REMARK                         _______ _______ _______ _____ _____    ______ ____
ROOT
ATOM      1  O   HOH     1      39.820  62.750  18.602  0.00  0.00    +0.000 OA
ENDROOT
TORSDOF 0
REMARK  Name = ../refined-set-2016/3czv/3czv_pocket.pdb
REMARK  144 active torsions:
REMARK  status: ('A' for Active; 'I' for Inactive)
REMARK    1  A    between atoms: _1  and  _3
REMARK    2  A    between atoms: _3  and  _4
REMARK    3  A    between atoms: _3  and  _6
REMARK    4  A    between atoms: _6  and  _7
REMARK    5  A    between atoms: _17  and  _19
REMARK    6  A    between atoms: _19  and  _20
REMARK    7  A    between atoms: _19  and  _22
REMARK    8  A    between atoms: _22  and  _23
REMARK    9  A    between atoms: _28  and  _29
REMARK   10  A    between atoms: _31  and  _33
REMARK   11  A    between atoms: _33  and  _34
REMARK   12  A    between atoms: _33  and  _36
REMARK   13  A    between atoms: _36  and  _37
REMARK   14  A    between atoms: _40  and  _41
REMARK   15  A    between atoms: _46  and  _48
REMARK   16  A    between atoms: _48  and  _49
REMARK   17  A    between atoms: _48  and  _51
REMARK   18  A    between atoms: _51  and  _52
REMARK   19  A    between atoms: _54  and  _56
REMARK   20  A    between atoms: _56  and  _57
REMARK   21  A    between atoms: _56  and  _59
REMARK   22  A    between atoms: _59  and  _60
REMARK   23  A    between atoms: _65  and  _67
REMARK   24  A    between atoms: _67  and  _68
REMARK   25  A    between atoms: _67  and  _70
REMARK   26  A    between atoms: _70  and  _71
REMARK   27  A    between atoms: _74  and  _76
REMARK   28  A    between atoms: _76  and  _77
REMARK   29  A    between atoms: _76  and  _79
REMARK   30  A    between atoms: _79  and  _80
REMARK   31  A    between atoms: _80  and  _81
REMARK   32  A    between atoms: _81  and  _82
REMARK   33  A    between atoms: _91  and  _93
REMARK   34  A    between atoms: _93  and  _94
REMARK   35  A    between atoms: _93  and  _96
REMARK   36  A    between atoms: _96  and  _97
REMARK   37  A    between atoms: _97  and  _98
REMARK   38  A    between atoms: _103  and  _105
REMARK   39  A    between atoms: _105  and  _106
REMARK   40  A    between atoms: _105  and  _108
REMARK   41  A    between atoms: _111  and  _113
REMARK   42  A    between atoms: _124  and  _127
REMARK   43  A    between atoms: _127  and  _128
REMARK   44  A    between atoms: _133  and  _134
REMARK   45  A    between atoms: _142  and  _144
REMARK   46  A    between atoms: _144  and  _145
REMARK   47  A    between atoms: _144  and  _147
REMARK   48  A    between atoms: _147  and  _148
REMARK   49  A    between atoms: _148  and  _149
REMARK   50  A    between atoms: _152  and  _154
REMARK   51  A    between atoms: _154  and  _155
REMARK   52  A    between atoms: _154  and  _157
REMARK   53  A    between atoms: _157  and  _158
REMARK   54  A    between atoms: _163  and  _165
REMARK   55  A    between atoms: _165  and  _166
REMARK   56  A    between atoms: _165  and  _168
REMARK   57  A    between atoms: _168  and  _169
REMARK   58  A    between atoms: _169  and  _170
REMARK   59  A    between atoms: _173  and  _175
REMARK   60  A    between atoms: _175  and  _176
REMARK   61  A    between atoms: _175  and  _178
REMARK   62  A    between atoms: _178  and  _179
REMARK   63  A    between atoms: _182  and  _184
REMARK   64  A    between atoms: _184  and  _185
REMARK   65  A    between atoms: _184  and  _187
REMARK   66  A    between atoms: _187  and  _188
REMARK   67  A    between atoms: _189  and  ZN_401
REMARK   68  A    between atoms: _193  and  _195
REMARK   69  A    between atoms: _195  and  _196
REMARK   70  A    between atoms: _195  and  _198
REMARK   71  A    between atoms: _201  and  _203
REMARK   72  A    between atoms: _203  and  _204
REMARK   73  A    between atoms: _203  and  _206
REMARK   74  A    between atoms: _209  and  _211
REMARK   75  A    between atoms: _211  and  _212
REMARK   76  A    between atoms: _211  and  _214
REMARK   77  A    between atoms: _214  and  _215
REMARK   78  A    between atoms: _220  and  _222
REMARK   79  A    between atoms: _222  and  _223
REMARK   80  A    between atoms: _222  and  _225
REMARK   81  A    between atoms: _225  and  _226
REMARK   82  A    between atoms: _232  and  _234
REMARK   83  A    between atoms: _234  and  _235
REMARK   84  A    between atoms: _238  and  _240
REMARK   85  A    between atoms: _240  and  _241
REMARK   86  A    between atoms: _240  and  _243
REMARK   87  A    between atoms: _243  and  _244
REMARK   88  A    between atoms: _247  and  _249
REMARK   89  A    between atoms: _249  and  _250
REMARK   90  A    between atoms: _253  and  _255
REMARK   91  A    between atoms: _255  and  _256
REMARK   92  A    between atoms: _255  and  _258
REMARK   93  A    between atoms: _261  and  _263
REMARK   94  A    between atoms: _263  and  _264
REMARK   95  A    between atoms: _263  and  _266
REMARK   96  A    between atoms: _266  and  _267
REMARK   97  A    between atoms: _270  and  _272
REMARK   98  A    between atoms: _272  and  _273
REMARK   99  A    between atoms: _275  and  _277
REMARK  100  A    between atoms: _277  and  _278
REMARK  101  A    between atoms: _277  and  _280
REMARK  102  A    between atoms: _280  and  _281
REMARK  103  A    between atoms: _283  and  _285
REMARK  104  A    between atoms: _285  and  _286
REMARK  105  A    between atoms: _285  and  _288
REMARK  106  A    between atoms: _288  and  _289
REMARK  107  A    between atoms: _292  and  _294
REMARK  108  A    between atoms: _294  and  _295
REMARK  109  A    between atoms: _294  and  _297
REMARK  110  A    between atoms: _297  and  _298
REMARK  111  A    between atoms: _301  and  _303
REMARK  112  A    between atoms: _303  and  _304
REMARK  113  A    between atoms: _303  and  _306
REMARK  114  A    between atoms: _310  and  _311
REMARK  115  A    between atoms: _317  and  _318
REMARK  116  A    between atoms: _323  and  _325
REMARK  117  A    between atoms: _325  and  _326
REMARK  118  A    between atoms: _325  and  _328
REMARK  119  A    between atoms: _328  and  _329
REMARK  120  A    between atoms: _332  and  _334
REMARK  121  A    between atoms: _334  and  _335
REMARK  122  A    between atoms: _334  and  _337
REMARK  123  A    between atoms: _337  and  _338
REMARK  124  A    between atoms: _341  and  _343
REMARK  125  A    between atoms: _343  and  _344
REMARK  126  A    between atoms: _343  and  _346
REMARK  127  A    between atoms: _346  and  _347
REMARK  128  A    between atoms: _349  and  _351
REMARK  129  A    between atoms: _351  and  _352
REMARK  130  A    between atoms: _351  and  _354
REMARK  131  A    between atoms: _357  and  _359
REMARK  132  A    between atoms: _359  and  _360
REMARK  133  A    between atoms: _359  and  _362
REMARK  134  A    between atoms: _362  and  _363
REMARK  135  A    between atoms: _373  and  _375
REMARK  136  A    between atoms: _375  and  _376
REMARK  137  A    between atoms: _375  and  _378
REMARK  138  A    between atoms: _378  and  _379
REMARK  139  A    between atoms: _384  and  _386
REMARK  140  A    between atoms: _386  and  _387
REMARK  141  A    between atoms: _386  and  _389
REMARK  142  A    between atoms: _389  and  _390
REMARK  143  A    between atoms: _390  and  _391
REMARK  144  A    between atoms: _391  and  _392
REMARK                            x       y       z     vdW  Elec       q    Type
REMARK                         _______ _______ _______ _____ _____    ______ ____
ROOT
ATOM      1  O   HOH     1      37.613  60.707  14.547  0.00  0.00    +0.000 OA
ENDROOT
TORSDOF 0
REMARK  Name = ../refined-set-2016/3czv/3czv_pocket.pdb
REMARK  144 active torsions:
REMARK  status: ('A' for Active; 'I' for Inactive)
REMARK    1  A    between atoms: _1  and  _3
REMARK    2  A    between atoms: _3  and  _4
REMARK    3  A    between atoms: _3  and  _6
REMARK    4  A    between atoms: _6  and  _7
REMARK    5  A    between atoms: _17  and  _19
REMARK    6  A    between atoms: _19  and  _20
REMARK    7  A    between atoms: _19  and  _22
REMARK    8  A    between atoms: _22  and  _23
REMARK    9  A    between atoms: _28  and  _29
REMARK   10  A    between atoms: _31  and  _33
REMARK   11  A    between atoms: _33  and  _34
REMARK   12  A    between atoms: _33  and  _36
REMARK   13  A    between atoms: _36  and  _37
REMARK   14  A    between atoms: _40  and  _41
REMARK   15  A    between atoms: _46  and  _48
REMARK   16  A    between atoms: _48  and  _49
REMARK   17  A    between atoms: _48  and  _51
REMARK   18  A    between atoms: _51  and  _52
REMARK   19  A    between atoms: _54  and  _56
REMARK   20  A    between atoms: _56  and  _57
REMARK   21  A    between atoms: _56  and  _59
REMARK   22  A    between atoms: _59  and  _60
REMARK   23  A    between atoms: _65  and  _67
REMARK   24  A    between atoms: _67  and  _68
REMARK   25  A    between atoms: _67  and  _70
REMARK   26  A    between atoms: _70  and  _71
REMARK   27  A    between atoms: _74  and  _76
REMARK   28  A    between atoms: _76  and  _77
REMARK   29  A    between atoms: _76  and  _79
REMARK   30  A    between atoms: _79  and  _80
REMARK   31  A    between atoms: _80  and  _81
REMARK   32  A    between atoms: _81  and  _82
REMARK   33  A    between atoms: _91  and  _93
REMARK   34  A    between atoms: _93  and  _94
REMARK   35  A    between atoms: _93  and  _96
REMARK   36  A    between atoms: _96  and  _97
REMARK   37  A    between atoms: _97  and  _98
REMARK   38  A    between atoms: _103  and  _105
REMARK   39  A    between atoms: _105  and  _106
REMARK   40  A    between atoms: _105  and  _108
REMARK   41  A    between atoms: _111  and  _113
REMARK   42  A    between atoms: _124  and  _127
REMARK   43  A    between atoms: _127  and  _128
REMARK   44  A    between atoms: _133  and  _134
REMARK   45  A    between atoms: _142  and  _144
REMARK   46  A    between atoms: _144  and  _145
REMARK   47  A    between atoms: _144  and  _147
REMARK   48  A    between atoms: _147  and  _148
REMARK   49  A    between atoms: _148  and  _149
REMARK   50  A    between atoms: _152  and  _154
REMARK   51  A    between atoms: _154  and  _155
REMARK   52  A    between atoms: _154  and  _157
REMARK   53  A    between atoms: _157  and  _158
REMARK   54  A    between atoms: _163  and  _165
REMARK   55  A    between atoms: _165  and  _166
REMARK   56  A    between atoms: _165  and  _168
REMARK   57  A    between atoms: _168  and  _169
REMARK   58  A    between atoms: _169  and  _170
REMARK   59  A    between atoms: _173  and  _175
REMARK   60  A    between atoms: _175  and  _176
REMARK   61  A    between atoms: _175  and  _178
REMARK   62  A    between atoms: _178  and  _179
REMARK   63  A    between atoms: _182  and  _184
REMARK   64  A    between atoms: _184  and  _185
REMARK   65  A    between atoms: _184  and  _187
REMARK   66  A    between atoms: _187  and  _188
REMARK   67  A    between atoms: _189  and  ZN_401
REMARK   68  A    between atoms: _193  and  _195
REMARK   69  A    between atoms: _195  and  _196
REMARK   70  A    between atoms: _195  and  _198
REMARK   71  A    between atoms: _201  and  _203
REMARK   72  A    between atoms: _203  and  _204
REMARK   73  A    between atoms: _203  and  _206
REMARK   74  A    between atoms: _209  and  _211
REMARK   75  A    between atoms: _211  and  _212
REMARK   76  A    between atoms: _211  and  _214
REMARK   77  A    between atoms: _214  and  _215
REMARK   78  A    between atoms: _220  and  _222
REMARK   79  A    between atoms: _222  and  _223
REMARK   80  A    between atoms: _222  and  _225
REMARK   81  A    between atoms: _225  and  _226
REMARK   82  A    between atoms: _232  and  _234
REMARK   83  A    between atoms: _234  and  _235
REMARK   84  A    between atoms: _238  and  _240
REMARK   85  A    between atoms: _240  and  _241
REMARK   86  A    between atoms: _240  and  _243
REMARK   87  A    between atoms: _243  and  _244
REMARK   88  A    between atoms: _247  and  _249
REMARK   89  A    between atoms: _249  and  _250
REMARK   90  A    between atoms: _253  and  _255
REMARK   91  A    between atoms: _255  and  _256
REMARK   92  A    between atoms: _255  and  _258
REMARK   93  A    between atoms: _261  and  _263
REMARK   94  A    between atoms: _263  and  _264
REMARK   95  A    between atoms: _263  and  _266
REMARK   96  A    between atoms: _266  and  _267
REMARK   97  A    between atoms: _270  and  _272
REMARK   98  A    between atoms: _272  and  _273
REMARK   99  A    between atoms: _275  and  _277
REMARK  100  A    between atoms: _277  and  _278
REMARK  101  A    between atoms: _277  and  _280
REMARK  102  A    between atoms: _280  and  _281
REMARK  103  A    between atoms: _283  and  _285
REMARK  104  A    between atoms: _285  and  _286
REMARK  105  A    between atoms: _285  and  _288
REMARK  106  A    between atoms: _288  and  _289
REMARK  107  A    between atoms: _292  and  _294
REMARK  108  A    between atoms: _294  and  _295
REMARK  109  A    between atoms: _294  and  _297
REMARK  110  A    between atoms: _297  and  _298
REMARK  111  A    between atoms: _301  and  _303
REMARK  112  A    between atoms: _303  and  _304
REMARK  113  A    between atoms: _303  and  _306
REMARK  114  A    between atoms: _310  and  _311
REMARK  115  A    between atoms: _317  and  _318
REMARK  116  A    between atoms: _323  and  _325
REMARK  117  A    between atoms: _325  and  _326
REMARK  118  A    between atoms: _325  and  _328
REMARK  119  A    between atoms: _328  and  _329
REMARK  120  A    between atoms: _332  and  _334
REMARK  121  A    between atoms: _334  and  _335
REMARK  122  A    between atoms: _334  and  _337
REMARK  123  A    between atoms: _337  and  _338
REMARK  124  A    between atoms: _341  and  _343
REMARK  125  A    between atoms: _343  and  _344
REMARK  126  A    between atoms: _343  and  _346
REMARK  127  A    between atoms: _346  and  _347
REMARK  128  A    between atoms: _349  and  _351
REMARK  129  A    between atoms: _351  and  _352
REMARK  130  A    between atoms: _351  and  _354
REMARK  131  A    between atoms: _357  and  _359
REMARK  132  A    between atoms: _359  and  _360
REMARK  133  A    between atoms: _359  and  _362
REMARK  134  A    between atoms: _362  and  _363
REMARK  135  A    between atoms: _373  and  _375
REMARK  136  A    between atoms: _375  and  _376
REMARK  137  A    between atoms: _375  and  _378
REMARK  138  A    between atoms: _378  and  _379
REMARK  139  A    between atoms: _384  and  _386
REMARK  140  A    between atoms: _386  and  _387
REMARK  141  A    between atoms: _386  and  _389
REMARK  142  A    between atoms: _389  and  _390
REMARK  143  A    between atoms: _390  and  _391
REMARK  144  A    between atoms: _391  and  _392
REMARK                            x       y       z     vdW  Elec       q    Type
REMARK                         _______ _______ _______ _____ _____    ______ ____
ROOT
ATOM      1  O   HOH     1      36.615  61.340  17.180  0.00  0.00    +0.000 OA
ENDROOT
TORSDOF 0
REMARK  Name = ../refined-set-2016/3czv/3czv_pocket.pdb
REMARK  144 active torsions:
REMARK  status: ('A' for Active; 'I' for Inactive)
REMARK    1  A    between atoms: _1  and  _3
REMARK    2  A    between atoms: _3  and  _4
REMARK    3  A    between atoms: _3  and  _6
REMARK    4  A    between atoms: _6  and  _7
REMARK    5  A    between atoms: _17  and  _19
REMARK    6  A    between atoms: _19  and  _20
REMARK    7  A    between atoms: _19  and  _22
REMARK    8  A    between atoms: _22  and  _23
REMARK    9  A    between atoms: _28  and  _29
REMARK   10  A    between atoms: _31  and  _33
REMARK   11  A    between atoms: _33  and  _34
REMARK   12  A    between atoms: _33  and  _36
REMARK   13  A    between atoms: _36  and  _37
REMARK   14  A    between atoms: _40  and  _41
REMARK   15  A    between atoms: _46  and  _48
REMARK   16  A    between atoms: _48  and  _49
REMARK   17  A    between atoms: _48  and  _51
REMARK   18  A    between atoms: _51  and  _52
REMARK   19  A    between atoms: _54  and  _56
REMARK   20  A    between atoms: _56  and  _57
REMARK   21  A    between atoms: _56  and  _59
REMARK   22  A    between atoms: _59  and  _60
REMARK   23  A    between atoms: _65  and  _67
REMARK   24  A    between atoms: _67  and  _68
REMARK   25  A    between atoms: _67  and  _70
REMARK   26  A    between atoms: _70  and  _71
REMARK   27  A    between atoms: _74  and  _76
REMARK   28  A    between atoms: _76  and  _77
REMARK   29  A    between atoms: _76  and  _79
REMARK   30  A    between atoms: _79  and  _80
REMARK   31  A    between atoms: _80  and  _81
REMARK   32  A    between atoms: _81  and  _82
REMARK   33  A    between atoms: _91  and  _93
REMARK   34  A    between atoms: _93  and  _94
REMARK   35  A    between atoms: _93  and  _96
REMARK   36  A    between atoms: _96  and  _97
REMARK   37  A    between atoms: _97  and  _98
REMARK   38  A    between atoms: _103  and  _105
REMARK   39  A    between atoms: _105  and  _106
REMARK   40  A    between atoms: _105  and  _108
REMARK   41  A    between atoms: _111  and  _113
REMARK   42  A    between atoms: _124  and  _127
REMARK   43  A    between atoms: _127  and  _128
REMARK   44  A    between atoms: _133  and  _134
REMARK   45  A    between atoms: _142  and  _144
REMARK   46  A    between atoms: _144  and  _145
REMARK   47  A    between atoms: _144  and  _147
REMARK   48  A    between atoms: _147  and  _148
REMARK   49  A    between atoms: _148  and  _149
REMARK   50  A    between atoms: _152  and  _154
REMARK   51  A    between atoms: _154  and  _155
REMARK   52  A    between atoms: _154  and  _157
REMARK   53  A    between atoms: _157  and  _158
REMARK   54  A    between atoms: _163  and  _165
REMARK   55  A    between atoms: _165  and  _166
REMARK   56  A    between atoms: _165  and  _168
REMARK   57  A    between atoms: _168  and  _169
REMARK   58  A    between atoms: _169  and  _170
REMARK   59  A    between atoms: _173  and  _175
REMARK   60  A    between atoms: _175  and  _176
REMARK   61  A    between atoms: _175  and  _178
REMARK   62  A    between atoms: _178  and  _179
REMARK   63  A    between atoms: _182  and  _184
REMARK   64  A    between atoms: _184  and  _185
REMARK   65  A    between atoms: _184  and  _187
REMARK   66  A    between atoms: _187  and  _188
REMARK   67  A    between atoms: _189  and  ZN_401
REMARK   68  A    between atoms: _193  and  _195
REMARK   69  A    between atoms: _195  and  _196
REMARK   70  A    between atoms: _195  and  _198
REMARK   71  A    between atoms: _201  and  _203
REMARK   72  A    between atoms: _203  and  _204
REMARK   73  A    between atoms: _203  and  _206
REMARK   74  A    between atoms: _209  and  _211
REMARK   75  A    between atoms: _211  and  _212
REMARK   76  A    between atoms: _211  and  _214
REMARK   77  A    between atoms: _214  and  _215
REMARK   78  A    between atoms: _220  and  _222
REMARK   79  A    between atoms: _222  and  _223
REMARK   80  A    between atoms: _222  and  _225
REMARK   81  A    between atoms: _225  and  _226
REMARK   82  A    between atoms: _232  and  _234
REMARK   83  A    between atoms: _234  and  _235
REMARK   84  A    between atoms: _238  and  _240
REMARK   85  A    between atoms: _240  and  _241
REMARK   86  A    between atoms: _240  and  _243
REMARK   87  A    between atoms: _243  and  _244
REMARK   88  A    between atoms: _247  and  _249
REMARK   89  A    between atoms: _249  and  _250
REMARK   90  A    between atoms: _253  and  _255
REMARK   91  A    between atoms: _255  and  _256
REMARK   92  A    between atoms: _255  and  _258
REMARK   93  A    between atoms: _261  and  _263
REMARK   94  A    between atoms: _263  and  _264
REMARK   95  A    between atoms: _263  and  _266
REMARK   96  A    between atoms: _266  and  _267
REMARK   97  A    between atoms: _270  and  _272
REMARK   98  A    between atoms: _272  and  _273
REMARK   99  A    between atoms: _275  and  _277
REMARK  100  A    between atoms: _277  and  _278
REMARK  101  A    between atoms: _277  and  _280
REMARK  102  A    between atoms: _280  and  _281
REMARK  103  A    between atoms: _283  and  _285
REMARK  104  A    between atoms: _285  and  _286
REMARK  105  A    between atoms: _285  and  _288
REMARK  106  A    between atoms: _288  and  _289
REMARK  107  A    between atoms: _292  and  _294
REMARK  108  A    between atoms: _294  and  _295
REMARK  109  A    between atoms: _294  and  _297
REMARK  110  A    between atoms: _297  and  _298
REMARK  111  A    between atoms: _301  and  _303
REMARK  112  A    between atoms: _303  and  _304
REMARK  113  A    between atoms: _303  and  _306
REMARK  114  A    between atoms: _310  and  _311
REMARK  115  A    between atoms: _317  and  _318
REMARK  116  A    between atoms: _323  and  _325
REMARK  117  A    between atoms: _325  and  _326
REMARK  118  A    between atoms: _325  and  _328
REMARK  119  A    between atoms: _328  and  _329
REMARK  120  A    between atoms: _332  and  _334
REMARK  121  A    between atoms: _334  and  _335
REMARK  122  A    between atoms: _334  and  _337
REMARK  123  A    between atoms: _337  and  _338
REMARK  124  A    between atoms: _341  and  _343
REMARK  125  A    between atoms: _343  and  _344
REMARK  126  A    between atoms: _343  and  _346
REMARK  127  A    between atoms: _346  and  _347
REMARK  128  A    between atoms: _349  and  _351
REMARK  129  A    between atoms: _351  and  _352
REMARK  130  A    between atoms: _351  and  _354
REMARK  131  A    between atoms: _357  and  _359
REMARK  132  A    between atoms: _359  and  _360
REMARK  133  A    between atoms: _359  and  _362
REMARK  134  A    between atoms: _362  and  _363
REMARK  135  A    between atoms: _373  and  _375
REMARK  136  A    between atoms: _375  and  _376
REMARK  137  A    between atoms: _375  and  _378
REMARK  138  A    between atoms: _378  and  _379
REMARK  139  A    between atoms: _384  and  _386
REMARK  140  A    between atoms: _386  and  _387
REMARK  141  A    between atoms: _386  and  _389
REMARK  142  A    between atoms: _389  and  _390
REMARK  143  A    between atoms: _390  and  _391
REMARK  144  A    between atoms: _391  and  _392
REMARK                            x       y       z     vdW  Elec       q    Type
REMARK                         _______ _______ _______ _____ _____    ______ ____
ROOT
ATOM      1  O   HOH     1      37.344  63.173  15.645  0.00  0.00    +0.000 OA
ENDROOT
TORSDOF 0
