REMARK  Name = ../refined-set-2016/3npc/3npc_pocket.pdb
REMARK  307 active torsions:
REMARK  status: ('A' for Active; 'I' for Inactive)
REMARK    1  A    between atoms: _1  and  _3
REMARK    2  A    between atoms: _3  and  _4
REMARK    3  A    between atoms: _3  and  _6
REMARK    4  A    between atoms: _6  and  _7
REMARK    5  A    between atoms: _10  and  _12
REMARK    6  A    between atoms: _12  and  _13
REMARK    7  A    between atoms: _15  and  _17
REMARK    8  A    between atoms: _17  and  _18
REMARK    9  A    between atoms: _17  and  _20
REMARK   10  A    between atoms: _20  and  _21
REMARK   11  A    between atoms: _21  and  _22
REMARK   12  A    between atoms: _27  and  _29
REMARK   13  A    between atoms: _29  and  _30
REMARK   14  A    between atoms: _29  and  _32
REMARK   15  A    between atoms: _32  and  _33
REMARK   16  A    between atoms: _36  and  _38
REMARK   17  A    between atoms: _38  and  _39
REMARK   18  A    between atoms: _38  and  _41
REMARK   19  A    between atoms: _44  and  _46
REMARK   20  A    between atoms: _46  and  _47
REMARK   21  A    between atoms: _46  and  _49
REMARK   22  A    between atoms: _51  and  _53
REMARK   23  A    between atoms: _53  and  _54
REMARK   24  A    between atoms: _57  and  _59
REMARK   25  A    between atoms: _59  and  _60
REMARK   26  A    between atoms: _59  and  _62
REMARK   27  A    between atoms: _62  and  _63
REMARK   28  A    between atoms: _68  and  _70
REMARK   29  A    between atoms: _70  and  _71
REMARK   30  A    between atoms: _70  and  _73
REMARK   31  A    between atoms: _76  and  _78
REMARK   32  A    between atoms: _78  and  _79
REMARK   33  A    between atoms: _82  and  _84
REMARK   34  A    between atoms: _84  and  _85
REMARK   35  A    between atoms: _84  and  _87
REMARK   36  A    between atoms: _90  and  _92
REMARK   37  A    between atoms: _92  and  _93
REMARK   38  A    between atoms: _92  and  _95
REMARK   39  A    between atoms: _95  and  _96
REMARK   40  A    between atoms: _96  and  _97
REMARK   41  A    between atoms: _97  and  _98
REMARK   42  A    between atoms: _98  and  _99
REMARK   43  A    between atoms: _103  and  _105
REMARK   44  A    between atoms: _105  and  _106
REMARK   45  A    between atoms: _105  and  _108
REMARK   46  A    between atoms: _108  and  _109
REMARK   47  A    between atoms: _109  and  _110
REMARK   48  A    between atoms: _110  and  _111
REMARK   49  A    between atoms: _111  and  _112
REMARK   50  A    between atoms: _116  and  _118
REMARK   51  A    between atoms: _118  and  _119
REMARK   52  A    between atoms: _118  and  _121
REMARK   53  A    between atoms: _121  and  _122
REMARK   54  A    between atoms: _125  and  _127
REMARK   55  A    between atoms: _127  and  _128
REMARK   56  A    between atoms: _127  and  _130
REMARK   57  A    between atoms: _130  and  _131
REMARK   58  A    between atoms: _134  and  _136
REMARK   59  A    between atoms: _136  and  _137
REMARK   60  A    between atoms: _136  and  _139
REMARK   61  A    between atoms: _139  and  _140
REMARK   62  A    between atoms: _145  and  _147
REMARK   63  A    between atoms: _147  and  _148
REMARK   64  A    between atoms: _147  and  _150
REMARK   65  A    between atoms: _150  and  _151
REMARK   66  A    between atoms: _151  and  _152
REMARK   67  A    between atoms: _152  and  _153
REMARK   68  A    between atoms: _153  and  _154
REMARK   69  A    between atoms: _158  and  _160
REMARK   70  A    between atoms: _160  and  _161
REMARK   71  A    between atoms: _160  and  _163
REMARK   72  A    between atoms: _163  and  _164
REMARK   73  A    between atoms: _164  and  _165
REMARK   74  A    between atoms: _165  and  _166
REMARK   75  A    between atoms: _175  and  _177
REMARK   76  A    between atoms: _177  and  _178
REMARK   77  A    between atoms: _181  and  _183
REMARK   78  A    between atoms: _183  and  _184
REMARK   79  A    between atoms: _183  and  _186
REMARK   80  A    between atoms: _186  and  _187
REMARK   81  A    between atoms: _192  and  _193
REMARK   82  A    between atoms: _195  and  _197
REMARK   83  A    between atoms: _197  and  _198
REMARK   84  A    between atoms: _197  and  _200
REMARK   85  A    between atoms: _200  and  _201
REMARK   86  A    between atoms: _201  and  _202
REMARK   87  A    between atoms: _202  and  _203
REMARK   88  A    between atoms: _212  and  _214
REMARK   89  A    between atoms: _214  and  _215
REMARK   90  A    between atoms: _214  and  _217
REMARK   91  A    between atoms: _217  and  _218
REMARK   92  A    between atoms: _218  and  _219
REMARK   93  A    between atoms: _222  and  _224
REMARK   94  A    between atoms: _224  and  _225
REMARK   95  A    between atoms: _224  and  _227
REMARK   96  A    between atoms: _227  and  _228
REMARK   97  A    between atoms: _231  and  _233
REMARK   98  A    between atoms: _233  and  _234
REMARK   99  A    between atoms: _233  and  _236
REMARK  100  A    between atoms: _239  and  _241
REMARK  101  A    between atoms: _241  and  _242
REMARK  102  A    between atoms: _241  and  _244
REMARK  103  A    between atoms: _244  and  _245
REMARK  104  A    between atoms: _248  and  _250
REMARK  105  A    between atoms: _250  and  _251
REMARK  106  A    between atoms: _250  and  _253
REMARK  107  A    between atoms: _253  and  _254
REMARK  108  A    between atoms: _257  and  _259
REMARK  109  A    between atoms: _259  and  _260
REMARK  110  A    between atoms: _259  and  _262
REMARK  111  A    between atoms: _262  and  _263
REMARK  112  A    between atoms: _263  and  _264
REMARK  113  A    between atoms: _264  and  _265
REMARK  114  A    between atoms: _265  and  _266
REMARK  115  A    between atoms: _270  and  _272
REMARK  116  A    between atoms: _272  and  _273
REMARK  117  A    between atoms: _272  and  _275
REMARK  118  A    between atoms: _277  and  _279
REMARK  119  A    between atoms: _279  and  _280
REMARK  120  A    between atoms: _279  and  _282
REMARK  121  A    between atoms: _285  and  _287
REMARK  122  A    between atoms: _287  and  _288
REMARK  123  A    between atoms: _287  and  _290
REMARK  124  A    between atoms: _290  and  _291
REMARK  125  A    between atoms: _296  and  _298
REMARK  126  A    between atoms: _298  and  _299
REMARK  127  A    between atoms: _298  and  _301
REMARK  128  A    between atoms: _301  and  _302
REMARK  129  A    between atoms: _305  and  _307
REMARK  130  A    between atoms: _307  and  _308
REMARK  131  A    between atoms: _307  and  _310
REMARK  132  A    between atoms: _310  and  _311
REMARK  133  A    between atoms: _314  and  _316
REMARK  134  A    between atoms: _316  and  _317
REMARK  135  A    between atoms: _316  and  _319
REMARK  136  A    between atoms: _319  and  _320
REMARK  137  A    between atoms: _322  and  _324
REMARK  138  A    between atoms: _324  and  _325
REMARK  139  A    between atoms: _324  and  _327
REMARK  140  A    between atoms: _327  and  _328
REMARK  141  A    between atoms: _331  and  _333
REMARK  142  A    between atoms: _333  and  _334
REMARK  143  A    between atoms: _333  and  _336
REMARK  144  A    between atoms: _336  and  _337
REMARK  145  A    between atoms: _340  and  _342
REMARK  146  A    between atoms: _342  and  _343
REMARK  147  A    between atoms: _342  and  _345
REMARK  148  A    between atoms: _345  and  _346
REMARK  149  A    between atoms: _351  and  _353
REMARK  150  A    between atoms: _353  and  _354
REMARK  151  A    between atoms: _353  and  _356
REMARK  152  A    between atoms: _356  and  _357
REMARK  153  A    between atoms: _362  and  _363
REMARK  154  A    between atoms: _365  and  _367
REMARK  155  A    between atoms: _367  and  _368
REMARK  156  A    between atoms: _367  and  _370
REMARK  157  A    between atoms: _370  and  _371
REMARK  158  A    between atoms: _374  and  _376
REMARK  159  A    between atoms: _376  and  _377
REMARK  160  A    between atoms: _376  and  _379
REMARK  161  A    between atoms: _382  and  _384
REMARK  162  A    between atoms: _384  and  _385
REMARK  163  A    between atoms: _384  and  _387
REMARK  164  A    between atoms: _387  and  _388
REMARK  165  A    between atoms: _388  and  _389
REMARK  166  A    between atoms: _391  and  _393
REMARK  167  A    between atoms: _393  and  _394
REMARK  168  A    between atoms: _393  and  _396
REMARK  169  A    between atoms: _396  and  _397
REMARK  170  A    between atoms: _397  and  _398
REMARK  171  A    between atoms: _401  and  _403
REMARK  172  A    between atoms: _403  and  _404
REMARK  173  A    between atoms: _403  and  _406
REMARK  174  A    between atoms: _406  and  _407
REMARK  175  A    between atoms: _410  and  _412
REMARK  176  A    between atoms: _412  and  _413
REMARK  177  A    between atoms: _412  and  _415
REMARK  178  A    between atoms: _415  and  _416
REMARK  179  A    between atoms: _416  and  _417
REMARK  180  A    between atoms: _419  and  _421
REMARK  181  A    between atoms: _421  and  _422
REMARK  182  A    between atoms: _421  and  _424
REMARK  183  A    between atoms: _424  and  _425
REMARK  184  A    between atoms: _428  and  _430
REMARK  185  A    between atoms: _430  and  _431
REMARK  186  A    between atoms: _434  and  _436
REMARK  187  A    between atoms: _436  and  _437
REMARK  188  A    between atoms: _436  and  _439
REMARK  189  A    between atoms: _439  and  _440
REMARK  190  A    between atoms: _445  and  _447
REMARK  191  A    between atoms: _447  and  _448
REMARK  192  A    between atoms: _447  and  _450
REMARK  193  A    between atoms: _450  and  _451
REMARK  194  A    between atoms: _451  and  _452
REMARK  195  A    between atoms: _457  and  _459
REMARK  196  A    between atoms: _459  and  _460
REMARK  197  A    between atoms: _462  and  _464
REMARK  198  A    between atoms: _464  and  _465
REMARK  199  A    between atoms: _464  and  _467
REMARK  200  A    between atoms: _467  and  _468
REMARK  201  A    between atoms: _471  and  _473
REMARK  202  A    between atoms: _473  and  _474
REMARK  203  A    between atoms: _477  and  _479
REMARK  204  A    between atoms: _479  and  _480
REMARK  205  A    between atoms: _479  and  _482
REMARK  206  A    between atoms: _482  and  _483
REMARK  207  A    between atoms: _486  and  _488
REMARK  208  A    between atoms: _488  and  _489
REMARK  209  A    between atoms: _488  and  _491
REMARK  210  A    between atoms: _491  and  _492
REMARK  211  A    between atoms: _495  and  _497
REMARK  212  A    between atoms: _497  and  _498
REMARK  213  A    between atoms: _497  and  _500
REMARK  214  A    between atoms: _500  and  _501
REMARK  215  A    between atoms: _506  and  _508
REMARK  216  A    between atoms: _508  and  _509
REMARK  217  A    between atoms: _508  and  _511
REMARK  218  A    between atoms: _511  and  _512
REMARK  219  A    between atoms: _512  and  _513
REMARK  220  A    between atoms: _513  and  _514
REMARK  221  A    between atoms: _523  and  _525
REMARK  222  A    between atoms: _525  and  _526
REMARK  223  A    between atoms: _525  and  _528
REMARK  224  A    between atoms: _528  and  _529
REMARK  225  A    between atoms: _532  and  _534
REMARK  226  A    between atoms: _534  and  _535
REMARK  227  A    between atoms: _534  and  _537
REMARK  228  A    between atoms: _537  and  _538
REMARK  229  A    between atoms: _541  and  _543
REMARK  230  A    between atoms: _543  and  _544
REMARK  231  A    between atoms: _543  and  _546
REMARK  232  A    between atoms: _546  and  _547
REMARK  233  A    between atoms: _549  and  _551
REMARK  234  A    between atoms: _551  and  _552
REMARK  235  A    between atoms: _551  and  _554
REMARK  236  A    between atoms: _554  and  _555
REMARK  237  A    between atoms: _560  and  _562
REMARK  238  A    between atoms: _562  and  _563
REMARK  239  A    between atoms: _562  and  _565
REMARK  240  A    between atoms: _565  and  _566
REMARK  241  A    between atoms: _569  and  _571
REMARK  242  A    between atoms: _571  and  _572
REMARK  243  A    between atoms: _571  and  _574
REMARK  244  A    between atoms: _577  and  _579
REMARK  245  A    between atoms: _579  and  _580
REMARK  246  A    between atoms: _579  and  _582
REMARK  247  A    between atoms: _585  and  _587
REMARK  248  A    between atoms: _587  and  _588
REMARK  249  A    between atoms: _587  and  _590
REMARK  250  A    between atoms: _590  and  _591
REMARK  251  A    between atoms: _591  and  _592
REMARK  252  A    between atoms: _592  and  _593
REMARK  253  A    between atoms: _593  and  _594
REMARK  254  A    between atoms: _598  and  _600
REMARK  255  A    between atoms: _600  and  _601
REMARK  256  A    between atoms: _600  and  _603
REMARK  257  A    between atoms: _603  and  _604
REMARK  258  A    between atoms: _604  and  _605
REMARK  259  A    between atoms: _605  and  _606
REMARK  260  A    between atoms: _606  and  _607
REMARK  261  A    between atoms: _611  and  _613
REMARK  262  A    between atoms: _613  and  _614
REMARK  263  A    between atoms: _613  and  _616
REMARK  264  A    between atoms: _616  and  _617
REMARK  265  A    between atoms: _620  and  _622
REMARK  266  A    between atoms: _622  and  _623
REMARK  267  A    between atoms: _622  and  _625
REMARK  268  A    between atoms: _625  and  _626
REMARK  269  A    between atoms: _629  and  _631
REMARK  270  A    between atoms: _631  and  _632
REMARK  271  A    between atoms: _631  and  _634
REMARK  272  A    between atoms: _634  and  _635
REMARK  273  A    between atoms: _638  and  _640
REMARK  274  A    between atoms: _640  and  _641
REMARK  275  A    between atoms: _640  and  _643
REMARK  276  A    between atoms: _643  and  _644
REMARK  277  A    between atoms: _650  and  _652
REMARK  278  A    between atoms: _652  and  _653
REMARK  279  A    between atoms: _655  and  _657
REMARK  280  A    between atoms: _657  and  _658
REMARK  281  A    between atoms: _657  and  _660
REMARK  282  A    between atoms: _660  and  _661
REMARK  283  A    between atoms: _664  and  _666
REMARK  284  A    between atoms: _666  and  _667
REMARK  285  A    between atoms: _670  and  _672
REMARK  286  A    between atoms: _672  and  _673
REMARK  287  A    between atoms: _672  and  _675
REMARK  288  A    between atoms: _675  and  _676
REMARK  289  A    between atoms: _676  and  _677
REMARK  290  A    between atoms: _679  and  _681
REMARK  291  A    between atoms: _681  and  _682
REMARK  292  A    between atoms: _681  and  _684
REMARK  293  A    between atoms: _684  and  _685
REMARK  294  A    between atoms: _685  and  _686
REMARK  295  A    between atoms: _688  and  _690
REMARK  296  A    between atoms: _690  and  _691
REMARK  297  A    between atoms: _690  and  _693
REMARK  298  A    between atoms: _693  and  _694
REMARK  299  A    between atoms: _697  and  _699
REMARK  300  A    between atoms: _699  and  _700
REMARK  301  A    between atoms: _699  and  _702
REMARK  302  A    between atoms: _702  and  _703
REMARK  303  A    between atoms: _706  and  _708
REMARK  304  A    between atoms: _708  and  _709
REMARK  305  A    between atoms: _708  and  _711
REMARK  306  A    between atoms: _711  and  _712
REMARK  307  A    between atoms: _712  and  _713
REMARK                            x       y       z     vdW  Elec       q    Type
REMARK                         _______ _______ _______ _____ _____    ______ ____
ROOT
ATOM      1  CA  ILE A   1      53.284  53.450  22.951  0.00  0.00    +0.145 C 
ENDROOT
BRANCH   1   2
ATOM      2  C   ILE A   1      52.929  52.011  22.558  0.00  0.00    +0.238 C 
ATOM      3  N   GLY A   2      53.940  51.157  22.450  0.00  0.00    -0.297 N 
ATOM      4  H   GLY A   2      54.906  51.491  22.643  0.00  0.00    +0.150 HD
ATOM      5  O   ILE A   1      51.761  51.687  22.373  0.00  0.00    -0.274 OA
BRANCH   3   6
ATOM      6  CA  GLY A   2      53.734  49.761  22.068  0.00  0.00    +0.163 C 
BRANCH   6   7
ATOM      7  C   GLY A   2      54.960  48.915  22.330  0.00  0.00    +0.229 C 
ATOM      8  O   GLY A   2      56.080  49.348  22.081  0.00  0.00    -0.286 OA
ENDBRANCH   6   7
ENDBRANCH   3   6
ENDBRANCH   1   2
BRANCH   1   9
ATOM      9  N   ILE A   1      54.691  53.629  23.306  0.00  0.00    -0.238 NA
ATOM     10  H   ILE A   1      55.427  53.279  22.660  0.00  0.00    +0.142 HD
ENDBRANCH   1   9
BRANCH   1  11
ATOM     11  CB  ILE A   1      52.800  54.472  21.875  0.00  0.00    +0.025 C 
ATOM     12  CG2 ILE A   1      52.871  55.911  22.430  0.00  0.00    +0.002 C 
BRANCH  11  13
ATOM     13  CG1 ILE A   1      53.576  54.325  20.559  0.00  0.00    +0.002 C 
ATOM     14  CD1 ILE A   1      53.035  55.164  19.437  0.00  0.00    +0.000 C 
ENDBRANCH  11  13
ENDBRANCH   1  11
TORSDOF 6
REMARK  Name = ../refined-set-2016/3npc/3npc_pocket.pdb
REMARK  307 active torsions:
REMARK  status: ('A' for Active; 'I' for Inactive)
REMARK    1  A    between atoms: _1  and  _3
REMARK    2  A    between atoms: _3  and  _4
REMARK    3  A    between atoms: _3  and  _6
REMARK    4  A    between atoms: _6  and  _7
REMARK    5  A    between atoms: _10  and  _12
REMARK    6  A    between atoms: _12  and  _13
REMARK    7  A    between atoms: _15  and  _17
REMARK    8  A    between atoms: _17  and  _18
REMARK    9  A    between atoms: _17  and  _20
REMARK   10  A    between atoms: _20  and  _21
REMARK   11  A    between atoms: _21  and  _22
REMARK   12  A    between atoms: _27  and  _29
REMARK   13  A    between atoms: _29  and  _30
REMARK   14  A    between atoms: _29  and  _32
REMARK   15  A    between atoms: _32  and  _33
REMARK   16  A    between atoms: _36  and  _38
REMARK   17  A    between atoms: _38  and  _39
REMARK   18  A    between atoms: _38  and  _41
REMARK   19  A    between atoms: _44  and  _46
REMARK   20  A    between atoms: _46  and  _47
REMARK   21  A    between atoms: _46  and  _49
REMARK   22  A    between atoms: _51  and  _53
REMARK   23  A    between atoms: _53  and  _54
REMARK   24  A    between atoms: _57  and  _59
REMARK   25  A    between atoms: _59  and  _60
REMARK   26  A    between atoms: _59  and  _62
REMARK   27  A    between atoms: _62  and  _63
REMARK   28  A    between atoms: _68  and  _70
REMARK   29  A    between atoms: _70  and  _71
REMARK   30  A    between atoms: _70  and  _73
REMARK   31  A    between atoms: _76  and  _78
REMARK   32  A    between atoms: _78  and  _79
REMARK   33  A    between atoms: _82  and  _84
REMARK   34  A    between atoms: _84  and  _85
REMARK   35  A    between atoms: _84  and  _87
REMARK   36  A    between atoms: _90  and  _92
REMARK   37  A    between atoms: _92  and  _93
REMARK   38  A    between atoms: _92  and  _95
REMARK   39  A    between atoms: _95  and  _96
REMARK   40  A    between atoms: _96  and  _97
REMARK   41  A    between atoms: _97  and  _98
REMARK   42  A    between atoms: _98  and  _99
REMARK   43  A    between atoms: _103  and  _105
REMARK   44  A    between atoms: _105  and  _106
REMARK   45  A    between atoms: _105  and  _108
REMARK   46  A    between atoms: _108  and  _109
REMARK   47  A    between atoms: _109  and  _110
REMARK   48  A    between atoms: _110  and  _111
REMARK   49  A    between atoms: _111  and  _112
REMARK   50  A    between atoms: _116  and  _118
REMARK   51  A    between atoms: _118  and  _119
REMARK   52  A    between atoms: _118  and  _121
REMARK   53  A    between atoms: _121  and  _122
REMARK   54  A    between atoms: _125  and  _127
REMARK   55  A    between atoms: _127  and  _128
REMARK   56  A    between atoms: _127  and  _130
REMARK   57  A    between atoms: _130  and  _131
REMARK   58  A    between atoms: _134  and  _136
REMARK   59  A    between atoms: _136  and  _137
REMARK   60  A    between atoms: _136  and  _139
REMARK   61  A    between atoms: _139  and  _140
REMARK   62  A    between atoms: _145  and  _147
REMARK   63  A    between atoms: _147  and  _148
REMARK   64  A    between atoms: _147  and  _150
REMARK   65  A    between atoms: _150  and  _151
REMARK   66  A    between atoms: _151  and  _152
REMARK   67  A    between atoms: _152  and  _153
REMARK   68  A    between atoms: _153  and  _154
REMARK   69  A    between atoms: _158  and  _160
REMARK   70  A    between atoms: _160  and  _161
REMARK   71  A    between atoms: _160  and  _163
REMARK   72  A    between atoms: _163  and  _164
REMARK   73  A    between atoms: _164  and  _165
REMARK   74  A    between atoms: _165  and  _166
REMARK   75  A    between atoms: _175  and  _177
REMARK   76  A    between atoms: _177  and  _178
REMARK   77  A    between atoms: _181  and  _183
REMARK   78  A    between atoms: _183  and  _184
REMARK   79  A    between atoms: _183  and  _186
REMARK   80  A    between atoms: _186  and  _187
REMARK   81  A    between atoms: _192  and  _193
REMARK   82  A    between atoms: _195  and  _197
REMARK   83  A    between atoms: _197  and  _198
REMARK   84  A    between atoms: _197  and  _200
REMARK   85  A    between atoms: _200  and  _201
REMARK   86  A    between atoms: _201  and  _202
REMARK   87  A    between atoms: _202  and  _203
REMARK   88  A    between atoms: _212  and  _214
REMARK   89  A    between atoms: _214  and  _215
REMARK   90  A    between atoms: _214  and  _217
REMARK   91  A    between atoms: _217  and  _218
REMARK   92  A    between atoms: _218  and  _219
REMARK   93  A    between atoms: _222  and  _224
REMARK   94  A    between atoms: _224  and  _225
REMARK   95  A    between atoms: _224  and  _227
REMARK   96  A    between atoms: _227  and  _228
REMARK   97  A    between atoms: _231  and  _233
REMARK   98  A    between atoms: _233  and  _234
REMARK   99  A    between atoms: _233  and  _236
REMARK  100  A    between atoms: _239  and  _241
REMARK  101  A    between atoms: _241  and  _242
REMARK  102  A    between atoms: _241  and  _244
REMARK  103  A    between atoms: _244  and  _245
REMARK  104  A    between atoms: _248  and  _250
REMARK  105  A    between atoms: _250  and  _251
REMARK  106  A    between atoms: _250  and  _253
REMARK  107  A    between atoms: _253  and  _254
REMARK  108  A    between atoms: _257  and  _259
REMARK  109  A    between atoms: _259  and  _260
REMARK  110  A    between atoms: _259  and  _262
REMARK  111  A    between atoms: _262  and  _263
REMARK  112  A    between atoms: _263  and  _264
REMARK  113  A    between atoms: _264  and  _265
REMARK  114  A    between atoms: _265  and  _266
REMARK  115  A    between atoms: _270  and  _272
REMARK  116  A    between atoms: _272  and  _273
REMARK  117  A    between atoms: _272  and  _275
REMARK  118  A    between atoms: _277  and  _279
REMARK  119  A    between atoms: _279  and  _280
REMARK  120  A    between atoms: _279  and  _282
REMARK  121  A    between atoms: _285  and  _287
REMARK  122  A    between atoms: _287  and  _288
REMARK  123  A    between atoms: _287  and  _290
REMARK  124  A    between atoms: _290  and  _291
REMARK  125  A    between atoms: _296  and  _298
REMARK  126  A    between atoms: _298  and  _299
REMARK  127  A    between atoms: _298  and  _301
REMARK  128  A    between atoms: _301  and  _302
REMARK  129  A    between atoms: _305  and  _307
REMARK  130  A    between atoms: _307  and  _308
REMARK  131  A    between atoms: _307  and  _310
REMARK  132  A    between atoms: _310  and  _311
REMARK  133  A    between atoms: _314  and  _316
REMARK  134  A    between atoms: _316  and  _317
REMARK  135  A    between atoms: _316  and  _319
REMARK  136  A    between atoms: _319  and  _320
REMARK  137  A    between atoms: _322  and  _324
REMARK  138  A    between atoms: _324  and  _325
REMARK  139  A    between atoms: _324  and  _327
REMARK  140  A    between atoms: _327  and  _328
REMARK  141  A    between atoms: _331  and  _333
REMARK  142  A    between atoms: _333  and  _334
REMARK  143  A    between atoms: _333  and  _336
REMARK  144  A    between atoms: _336  and  _337
REMARK  145  A    between atoms: _340  and  _342
REMARK  146  A    between atoms: _342  and  _343
REMARK  147  A    between atoms: _342  and  _345
REMARK  148  A    between atoms: _345  and  _346
REMARK  149  A    between atoms: _351  and  _353
REMARK  150  A    between atoms: _353  and  _354
REMARK  151  A    between atoms: _353  and  _356
REMARK  152  A    between atoms: _356  and  _357
REMARK  153  A    between atoms: _362  and  _363
REMARK  154  A    between atoms: _365  and  _367
REMARK  155  A    between atoms: _367  and  _368
REMARK  156  A    between atoms: _367  and  _370
REMARK  157  A    between atoms: _370  and  _371
REMARK  158  A    between atoms: _374  and  _376
REMARK  159  A    between atoms: _376  and  _377
REMARK  160  A    between atoms: _376  and  _379
REMARK  161  A    between atoms: _382  and  _384
REMARK  162  A    between atoms: _384  and  _385
REMARK  163  A    between atoms: _384  and  _387
REMARK  164  A    between atoms: _387  and  _388
REMARK  165  A    between atoms: _388  and  _389
REMARK  166  A    between atoms: _391  and  _393
REMARK  167  A    between atoms: _393  and  _394
REMARK  168  A    between atoms: _393  and  _396
REMARK  169  A    between atoms: _396  and  _397
REMARK  170  A    between atoms: _397  and  _398
REMARK  171  A    between atoms: _401  and  _403
REMARK  172  A    between atoms: _403  and  _404
REMARK  173  A    between atoms: _403  and  _406
REMARK  174  A    between atoms: _406  and  _407
REMARK  175  A    between atoms: _410  and  _412
REMARK  176  A    between atoms: _412  and  _413
REMARK  177  A    between atoms: _412  and  _415
REMARK  178  A    between atoms: _415  and  _416
REMARK  179  A    between atoms: _416  and  _417
REMARK  180  A    between atoms: _419  and  _421
REMARK  181  A    between atoms: _421  and  _422
REMARK  182  A    between atoms: _421  and  _424
REMARK  183  A    between atoms: _424  and  _425
REMARK  184  A    between atoms: _428  and  _430
REMARK  185  A    between atoms: _430  and  _431
REMARK  186  A    between atoms: _434  and  _436
REMARK  187  A    between atoms: _436  and  _437
REMARK  188  A    between atoms: _436  and  _439
REMARK  189  A    between atoms: _439  and  _440
REMARK  190  A    between atoms: _445  and  _447
REMARK  191  A    between atoms: _447  and  _448
REMARK  192  A    between atoms: _447  and  _450
REMARK  193  A    between atoms: _450  and  _451
REMARK  194  A    between atoms: _451  and  _452
REMARK  195  A    between atoms: _457  and  _459
REMARK  196  A    between atoms: _459  and  _460
REMARK  197  A    between atoms: _462  and  _464
REMARK  198  A    between atoms: _464  and  _465
REMARK  199  A    between atoms: _464  and  _467
REMARK  200  A    between atoms: _467  and  _468
REMARK  201  A    between atoms: _471  and  _473
REMARK  202  A    between atoms: _473  and  _474
REMARK  203  A    between atoms: _477  and  _479
REMARK  204  A    between atoms: _479  and  _480
REMARK  205  A    between atoms: _479  and  _482
REMARK  206  A    between atoms: _482  and  _483
REMARK  207  A    between atoms: _486  and  _488
REMARK  208  A    between atoms: _488  and  _489
REMARK  209  A    between atoms: _488  and  _491
REMARK  210  A    between atoms: _491  and  _492
REMARK  211  A    between atoms: _495  and  _497
REMARK  212  A    between atoms: _497  and  _498
REMARK  213  A    between atoms: _497  and  _500
REMARK  214  A    between atoms: _500  and  _501
REMARK  215  A    between atoms: _506  and  _508
REMARK  216  A    between atoms: _508  and  _509
REMARK  217  A    between atoms: _508  and  _511
REMARK  218  A    between atoms: _511  and  _512
REMARK  219  A    between atoms: _512  and  _513
REMARK  220  A    between atoms: _513  and  _514
REMARK  221  A    between atoms: _523  and  _525
REMARK  222  A    between atoms: _525  and  _526
REMARK  223  A    between atoms: _525  and  _528
REMARK  224  A    between atoms: _528  and  _529
REMARK  225  A    between atoms: _532  and  _534
REMARK  226  A    between atoms: _534  and  _535
REMARK  227  A    between atoms: _534  and  _537
REMARK  228  A    between atoms: _537  and  _538
REMARK  229  A    between atoms: _541  and  _543
REMARK  230  A    between atoms: _543  and  _544
REMARK  231  A    between atoms: _543  and  _546
REMARK  232  A    between atoms: _546  and  _547
REMARK  233  A    between atoms: _549  and  _551
REMARK  234  A    between atoms: _551  and  _552
REMARK  235  A    between atoms: _551  and  _554
REMARK  236  A    between atoms: _554  and  _555
REMARK  237  A    between atoms: _560  and  _562
REMARK  238  A    between atoms: _562  and  _563
REMARK  239  A    between atoms: _562  and  _565
REMARK  240  A    between atoms: _565  and  _566
REMARK  241  A    between atoms: _569  and  _571
REMARK  242  A    between atoms: _571  and  _572
REMARK  243  A    between atoms: _571  and  _574
REMARK  244  A    between atoms: _577  and  _579
REMARK  245  A    between atoms: _579  and  _580
REMARK  246  A    between atoms: _579  and  _582
REMARK  247  A    between atoms: _585  and  _587
REMARK  248  A    between atoms: _587  and  _588
REMARK  249  A    between atoms: _587  and  _590
REMARK  250  A    between atoms: _590  and  _591
REMARK  251  A    between atoms: _591  and  _592
REMARK  252  A    between atoms: _592  and  _593
REMARK  253  A    between atoms: _593  and  _594
REMARK  254  A    between atoms: _598  and  _600
REMARK  255  A    between atoms: _600  and  _601
REMARK  256  A    between atoms: _600  and  _603
REMARK  257  A    between atoms: _603  and  _604
REMARK  258  A    between atoms: _604  and  _605
REMARK  259  A    between atoms: _605  and  _606
REMARK  260  A    between atoms: _606  and  _607
REMARK  261  A    between atoms: _611  and  _613
REMARK  262  A    between atoms: _613  and  _614
REMARK  263  A    between atoms: _613  and  _616
REMARK  264  A    between atoms: _616  and  _617
REMARK  265  A    between atoms: _620  and  _622
REMARK  266  A    between atoms: _622  and  _623
REMARK  267  A    between atoms: _622  and  _625
REMARK  268  A    between atoms: _625  and  _626
REMARK  269  A    between atoms: _629  and  _631
REMARK  270  A    between atoms: _631  and  _632
REMARK  271  A    between atoms: _631  and  _634
REMARK  272  A    between atoms: _634  and  _635
REMARK  273  A    between atoms: _638  and  _640
REMARK  274  A    between atoms: _640  and  _641
REMARK  275  A    between atoms: _640  and  _643
REMARK  276  A    between atoms: _643  and  _644
REMARK  277  A    between atoms: _650  and  _652
REMARK  278  A    between atoms: _652  and  _653
REMARK  279  A    between atoms: _655  and  _657
REMARK  280  A    between atoms: _657  and  _658
REMARK  281  A    between atoms: _657  and  _660
REMARK  282  A    between atoms: _660  and  _661
REMARK  283  A    between atoms: _664  and  _666
REMARK  284  A    between atoms: _666  and  _667
REMARK  285  A    between atoms: _670  and  _672
REMARK  286  A    between atoms: _672  and  _673
REMARK  287  A    between atoms: _672  and  _675
REMARK  288  A    between atoms: _675  and  _676
REMARK  289  A    between atoms: _676  and  _677
REMARK  290  A    between atoms: _679  and  _681
REMARK  291  A    between atoms: _681  and  _682
REMARK  292  A    between atoms: _681  and  _684
REMARK  293  A    between atoms: _684  and  _685
REMARK  294  A    between atoms: _685  and  _686
REMARK  295  A    between atoms: _688  and  _690
REMARK  296  A    between atoms: _690  and  _691
REMARK  297  A    between atoms: _690  and  _693
REMARK  298  A    between atoms: _693  and  _694
REMARK  299  A    between atoms: _697  and  _699
REMARK  300  A    between atoms: _699  and  _700
REMARK  301  A    between atoms: _699  and  _702
REMARK  302  A    between atoms: _702  and  _703
REMARK  303  A    between atoms: _706  and  _708
REMARK  304  A    between atoms: _708  and  _709
REMARK  305  A    between atoms: _708  and  _711
REMARK  306  A    between atoms: _711  and  _712
REMARK  307  A    between atoms: _712  and  _713
REMARK                            x       y       z     vdW  Elec       q    Type
REMARK                         _______ _______ _______ _____ _____    ______ ____
ROOT
ATOM      1  CB  GLN A   1      59.320  41.084  17.236  0.00  0.00    +0.035 C 
ENDROOT
BRANCH   1   2
ATOM      2  CA  GLN A   1      60.102  41.602  18.457  0.00  0.00    +0.134 C 
BRANCH   2   3
ATOM      3  N   GLN A   1      59.429  41.264  19.715  0.00  0.00    -0.239 NA
ATOM      4  H   GLN A   1      58.390  41.286  19.759  0.00  0.00    +0.142 HD
ENDBRANCH   2   3
BRANCH   2   5
ATOM      5  C   GLN A   1      60.404  43.098  18.270  0.00  0.00    +0.224 C 
ATOM      6  O   GLN A   1      61.132  43.455  17.335  0.00  0.00    -0.287 OA
ENDBRANCH   2   5
ENDBRANCH   1   2
BRANCH   1   7
ATOM      7  CG  GLN A   1      58.231  42.042  16.738  0.00  0.00    +0.087 C 
BRANCH   7   8
ATOM      8  CD  GLN A   1      58.011  42.012  15.228  0.00  0.00    +0.219 C 
ATOM      9  NE2 GLN A   1      56.965  41.313  14.796  0.00  0.00    -0.329 N 
ATOM     10 HE21 GLN A   1      56.366  40.800  15.474  0.00  0.00    +0.145 HD
ATOM     11 HE22 GLN A   1      56.746  41.279  13.780  0.00  0.00    +0.145 HD
ATOM     12  OE1 GLN A   1      58.756  42.640  14.465  0.00  0.00    -0.275 OA
ENDBRANCH   7   8
ENDBRANCH   1   7
TORSDOF 5
REMARK  Name = ../refined-set-2016/3npc/3npc_pocket.pdb
REMARK  307 active torsions:
REMARK  status: ('A' for Active; 'I' for Inactive)
REMARK    1  A    between atoms: _1  and  _3
REMARK    2  A    between atoms: _3  and  _4
REMARK    3  A    between atoms: _3  and  _6
REMARK    4  A    between atoms: _6  and  _7
REMARK    5  A    between atoms: _10  and  _12
REMARK    6  A    between atoms: _12  and  _13
REMARK    7  A    between atoms: _15  and  _17
REMARK    8  A    between atoms: _17  and  _18
REMARK    9  A    between atoms: _17  and  _20
REMARK   10  A    between atoms: _20  and  _21
REMARK   11  A    between atoms: _21  and  _22
REMARK   12  A    between atoms: _27  and  _29
REMARK   13  A    between atoms: _29  and  _30
REMARK   14  A    between atoms: _29  and  _32
REMARK   15  A    between atoms: _32  and  _33
REMARK   16  A    between atoms: _36  and  _38
REMARK   17  A    between atoms: _38  and  _39
REMARK   18  A    between atoms: _38  and  _41
REMARK   19  A    between atoms: _44  and  _46
REMARK   20  A    between atoms: _46  and  _47
REMARK   21  A    between atoms: _46  and  _49
REMARK   22  A    between atoms: _51  and  _53
REMARK   23  A    between atoms: _53  and  _54
REMARK   24  A    between atoms: _57  and  _59
REMARK   25  A    between atoms: _59  and  _60
REMARK   26  A    between atoms: _59  and  _62
REMARK   27  A    between atoms: _62  and  _63
REMARK   28  A    between atoms: _68  and  _70
REMARK   29  A    between atoms: _70  and  _71
REMARK   30  A    between atoms: _70  and  _73
REMARK   31  A    between atoms: _76  and  _78
REMARK   32  A    between atoms: _78  and  _79
REMARK   33  A    between atoms: _82  and  _84
REMARK   34  A    between atoms: _84  and  _85
REMARK   35  A    between atoms: _84  and  _87
REMARK   36  A    between atoms: _90  and  _92
REMARK   37  A    between atoms: _92  and  _93
REMARK   38  A    between atoms: _92  and  _95
REMARK   39  A    between atoms: _95  and  _96
REMARK   40  A    between atoms: _96  and  _97
REMARK   41  A    between atoms: _97  and  _98
REMARK   42  A    between atoms: _98  and  _99
REMARK   43  A    between atoms: _103  and  _105
REMARK   44  A    between atoms: _105  and  _106
REMARK   45  A    between atoms: _105  and  _108
REMARK   46  A    between atoms: _108  and  _109
REMARK   47  A    between atoms: _109  and  _110
REMARK   48  A    between atoms: _110  and  _111
REMARK   49  A    between atoms: _111  and  _112
REMARK   50  A    between atoms: _116  and  _118
REMARK   51  A    between atoms: _118  and  _119
REMARK   52  A    between atoms: _118  and  _121
REMARK   53  A    between atoms: _121  and  _122
REMARK   54  A    between atoms: _125  and  _127
REMARK   55  A    between atoms: _127  and  _128
REMARK   56  A    between atoms: _127  and  _130
REMARK   57  A    between atoms: _130  and  _131
REMARK   58  A    between atoms: _134  and  _136
REMARK   59  A    between atoms: _136  and  _137
REMARK   60  A    between atoms: _136  and  _139
REMARK   61  A    between atoms: _139  and  _140
REMARK   62  A    between atoms: _145  and  _147
REMARK   63  A    between atoms: _147  and  _148
REMARK   64  A    between atoms: _147  and  _150
REMARK   65  A    between atoms: _150  and  _151
REMARK   66  A    between atoms: _151  and  _152
REMARK   67  A    between atoms: _152  and  _153
REMARK   68  A    between atoms: _153  and  _154
REMARK   69  A    between atoms: _158  and  _160
REMARK   70  A    between atoms: _160  and  _161
REMARK   71  A    between atoms: _160  and  _163
REMARK   72  A    between atoms: _163  and  _164
REMARK   73  A    between atoms: _164  and  _165
REMARK   74  A    between atoms: _165  and  _166
REMARK   75  A    between atoms: _175  and  _177
REMARK   76  A    between atoms: _177  and  _178
REMARK   77  A    between atoms: _181  and  _183
REMARK   78  A    between atoms: _183  and  _184
REMARK   79  A    between atoms: _183  and  _186
REMARK   80  A    between atoms: _186  and  _187
REMARK   81  A    between atoms: _192  and  _193
REMARK   82  A    between atoms: _195  and  _197
REMARK   83  A    between atoms: _197  and  _198
REMARK   84  A    between atoms: _197  and  _200
REMARK   85  A    between atoms: _200  and  _201
REMARK   86  A    between atoms: _201  and  _202
REMARK   87  A    between atoms: _202  and  _203
REMARK   88  A    between atoms: _212  and  _214
REMARK   89  A    between atoms: _214  and  _215
REMARK   90  A    between atoms: _214  and  _217
REMARK   91  A    between atoms: _217  and  _218
REMARK   92  A    between atoms: _218  and  _219
REMARK   93  A    between atoms: _222  and  _224
REMARK   94  A    between atoms: _224  and  _225
REMARK   95  A    between atoms: _224  and  _227
REMARK   96  A    between atoms: _227  and  _228
REMARK   97  A    between atoms: _231  and  _233
REMARK   98  A    between atoms: _233  and  _234
REMARK   99  A    between atoms: _233  and  _236
REMARK  100  A    between atoms: _239  and  _241
REMARK  101  A    between atoms: _241  and  _242
REMARK  102  A    between atoms: _241  and  _244
REMARK  103  A    between atoms: _244  and  _245
REMARK  104  A    between atoms: _248  and  _250
REMARK  105  A    between atoms: _250  and  _251
REMARK  106  A    between atoms: _250  and  _253
REMARK  107  A    between atoms: _253  and  _254
REMARK  108  A    between atoms: _257  and  _259
REMARK  109  A    between atoms: _259  and  _260
REMARK  110  A    between atoms: _259  and  _262
REMARK  111  A    between atoms: _262  and  _263
REMARK  112  A    between atoms: _263  and  _264
REMARK  113  A    between atoms: _264  and  _265
REMARK  114  A    between atoms: _265  and  _266
REMARK  115  A    between atoms: _270  and  _272
REMARK  116  A    between atoms: _272  and  _273
REMARK  117  A    between atoms: _272  and  _275
REMARK  118  A    between atoms: _277  and  _279
REMARK  119  A    between atoms: _279  and  _280
REMARK  120  A    between atoms: _279  and  _282
REMARK  121  A    between atoms: _285  and  _287
REMARK  122  A    between atoms: _287  and  _288
REMARK  123  A    between atoms: _287  and  _290
REMARK  124  A    between atoms: _290  and  _291
REMARK  125  A    between atoms: _296  and  _298
REMARK  126  A    between atoms: _298  and  _299
REMARK  127  A    between atoms: _298  and  _301
REMARK  128  A    between atoms: _301  and  _302
REMARK  129  A    between atoms: _305  and  _307
REMARK  130  A    between atoms: _307  and  _308
REMARK  131  A    between atoms: _307  and  _310
REMARK  132  A    between atoms: _310  and  _311
REMARK  133  A    between atoms: _314  and  _316
REMARK  134  A    between atoms: _316  and  _317
REMARK  135  A    between atoms: _316  and  _319
REMARK  136  A    between atoms: _319  and  _320
REMARK  137  A    between atoms: _322  and  _324
REMARK  138  A    between atoms: _324  and  _325
REMARK  139  A    between atoms: _324  and  _327
REMARK  140  A    between atoms: _327  and  _328
REMARK  141  A    between atoms: _331  and  _333
REMARK  142  A    between atoms: _333  and  _334
REMARK  143  A    between atoms: _333  and  _336
REMARK  144  A    between atoms: _336  and  _337
REMARK  145  A    between atoms: _340  and  _342
REMARK  146  A    between atoms: _342  and  _343
REMARK  147  A    between atoms: _342  and  _345
REMARK  148  A    between atoms: _345  and  _346
REMARK  149  A    between atoms: _351  and  _353
REMARK  150  A    between atoms: _353  and  _354
REMARK  151  A    between atoms: _353  and  _356
REMARK  152  A    between atoms: _356  and  _357
REMARK  153  A    between atoms: _362  and  _363
REMARK  154  A    between atoms: _365  and  _367
REMARK  155  A    between atoms: _367  and  _368
REMARK  156  A    between atoms: _367  and  _370
REMARK  157  A    between atoms: _370  and  _371
REMARK  158  A    between atoms: _374  and  _376
REMARK  159  A    between atoms: _376  and  _377
REMARK  160  A    between atoms: _376  and  _379
REMARK  161  A    between atoms: _382  and  _384
REMARK  162  A    between atoms: _384  and  _385
REMARK  163  A    between atoms: _384  and  _387
REMARK  164  A    between atoms: _387  and  _388
REMARK  165  A    between atoms: _388  and  _389
REMARK  166  A    between atoms: _391  and  _393
REMARK  167  A    between atoms: _393  and  _394
REMARK  168  A    between atoms: _393  and  _396
REMARK  169  A    between atoms: _396  and  _397
REMARK  170  A    between atoms: _397  and  _398
REMARK  171  A    between atoms: _401  and  _403
REMARK  172  A    between atoms: _403  and  _404
REMARK  173  A    between atoms: _403  and  _406
REMARK  174  A    between atoms: _406  and  _407
REMARK  175  A    between atoms: _410  and  _412
REMARK  176  A    between atoms: _412  and  _413
REMARK  177  A    between atoms: _412  and  _415
REMARK  178  A    between atoms: _415  and  _416
REMARK  179  A    between atoms: _416  and  _417
REMARK  180  A    between atoms: _419  and  _421
REMARK  181  A    between atoms: _421  and  _422
REMARK  182  A    between atoms: _421  and  _424
REMARK  183  A    between atoms: _424  and  _425
REMARK  184  A    between atoms: _428  and  _430
REMARK  185  A    between atoms: _430  and  _431
REMARK  186  A    between atoms: _434  and  _436
REMARK  187  A    between atoms: _436  and  _437
REMARK  188  A    between atoms: _436  and  _439
REMARK  189  A    between atoms: _439  and  _440
REMARK  190  A    between atoms: _445  and  _447
REMARK  191  A    between atoms: _447  and  _448
REMARK  192  A    between atoms: _447  and  _450
REMARK  193  A    between atoms: _450  and  _451
REMARK  194  A    between atoms: _451  and  _452
REMARK  195  A    between atoms: _457  and  _459
REMARK  196  A    between atoms: _459  and  _460
REMARK  197  A    between atoms: _462  and  _464
REMARK  198  A    between atoms: _464  and  _465
REMARK  199  A    between atoms: _464  and  _467
REMARK  200  A    between atoms: _467  and  _468
REMARK  201  A    between atoms: _471  and  _473
REMARK  202  A    between atoms: _473  and  _474
REMARK  203  A    between atoms: _477  and  _479
REMARK  204  A    between atoms: _479  and  _480
REMARK  205  A    between atoms: _479  and  _482
REMARK  206  A    between atoms: _482  and  _483
REMARK  207  A    between atoms: _486  and  _488
REMARK  208  A    between atoms: _488  and  _489
REMARK  209  A    between atoms: _488  and  _491
REMARK  210  A    between atoms: _491  and  _492
REMARK  211  A    between atoms: _495  and  _497
REMARK  212  A    between atoms: _497  and  _498
REMARK  213  A    between atoms: _497  and  _500
REMARK  214  A    between atoms: _500  and  _501
REMARK  215  A    between atoms: _506  and  _508
REMARK  216  A    between atoms: _508  and  _509
REMARK  217  A    between atoms: _508  and  _511
REMARK  218  A    between atoms: _511  and  _512
REMARK  219  A    between atoms: _512  and  _513
REMARK  220  A    between atoms: _513  and  _514
REMARK  221  A    between atoms: _523  and  _525
REMARK  222  A    between atoms: _525  and  _526
REMARK  223  A    between atoms: _525  and  _528
REMARK  224  A    between atoms: _528  and  _529
REMARK  225  A    between atoms: _532  and  _534
REMARK  226  A    between atoms: _534  and  _535
REMARK  227  A    between atoms: _534  and  _537
REMARK  228  A    between atoms: _537  and  _538
REMARK  229  A    between atoms: _541  and  _543
REMARK  230  A    between atoms: _543  and  _544
REMARK  231  A    between atoms: _543  and  _546
REMARK  232  A    between atoms: _546  and  _547
REMARK  233  A    between atoms: _549  and  _551
REMARK  234  A    between atoms: _551  and  _552
REMARK  235  A    between atoms: _551  and  _554
REMARK  236  A    between atoms: _554  and  _555
REMARK  237  A    between atoms: _560  and  _562
REMARK  238  A    between atoms: _562  and  _563
REMARK  239  A    between atoms: _562  and  _565
REMARK  240  A    between atoms: _565  and  _566
REMARK  241  A    between atoms: _569  and  _571
REMARK  242  A    between atoms: _571  and  _572
REMARK  243  A    between atoms: _571  and  _574
REMARK  244  A    between atoms: _577  and  _579
REMARK  245  A    between atoms: _579  and  _580
REMARK  246  A    between atoms: _579  and  _582
REMARK  247  A    between atoms: _585  and  _587
REMARK  248  A    between atoms: _587  and  _588
REMARK  249  A    between atoms: _587  and  _590
REMARK  250  A    between atoms: _590  and  _591
REMARK  251  A    between atoms: _591  and  _592
REMARK  252  A    between atoms: _592  and  _593
REMARK  253  A    between atoms: _593  and  _594
REMARK  254  A    between atoms: _598  and  _600
REMARK  255  A    between atoms: _600  and  _601
REMARK  256  A    between atoms: _600  and  _603
REMARK  257  A    between atoms: _603  and  _604
REMARK  258  A    between atoms: _604  and  _605
REMARK  259  A    between atoms: _605  and  _606
REMARK  260  A    between atoms: _606  and  _607
REMARK  261  A    between atoms: _611  and  _613
REMARK  262  A    between atoms: _613  and  _614
REMARK  263  A    between atoms: _613  and  _616
REMARK  264  A    between atoms: _616  and  _617
REMARK  265  A    between atoms: _620  and  _622
REMARK  266  A    between atoms: _622  and  _623
REMARK  267  A    between atoms: _622  and  _625
REMARK  268  A    between atoms: _625  and  _626
REMARK  269  A    between atoms: _629  and  _631
REMARK  270  A    between atoms: _631  and  _632
REMARK  271  A    between atoms: _631  and  _634
REMARK  272  A    between atoms: _634  and  _635
REMARK  273  A    between atoms: _638  and  _640
REMARK  274  A    between atoms: _640  and  _641
REMARK  275  A    between atoms: _640  and  _643
REMARK  276  A    between atoms: _643  and  _644
REMARK  277  A    between atoms: _650  and  _652
REMARK  278  A    between atoms: _652  and  _653
REMARK  279  A    between atoms: _655  and  _657
REMARK  280  A    between atoms: _657  and  _658
REMARK  281  A    between atoms: _657  and  _660
REMARK  282  A    between atoms: _660  and  _661
REMARK  283  A    between atoms: _664  and  _666
REMARK  284  A    between atoms: _666  and  _667
REMARK  285  A    between atoms: _670  and  _672
REMARK  286  A    between atoms: _672  and  _673
REMARK  287  A    between atoms: _672  and  _675
REMARK  288  A    between atoms: _675  and  _676
REMARK  289  A    between atoms: _676  and  _677
REMARK  290  A    between atoms: _679  and  _681
REMARK  291  A    between atoms: _681  and  _682
REMARK  292  A    between atoms: _681  and  _684
REMARK  293  A    between atoms: _684  and  _685
REMARK  294  A    between atoms: _685  and  _686
REMARK  295  A    between atoms: _688  and  _690
REMARK  296  A    between atoms: _690  and  _691
REMARK  297  A    between atoms: _690  and  _693
REMARK  298  A    between atoms: _693  and  _694
REMARK  299  A    between atoms: _697  and  _699
REMARK  300  A    between atoms: _699  and  _700
REMARK  301  A    between atoms: _699  and  _702
REMARK  302  A    between atoms: _702  and  _703
REMARK  303  A    between atoms: _706  and  _708
REMARK  304  A    between atoms: _708  and  _709
REMARK  305  A    between atoms: _708  and  _711
REMARK  306  A    between atoms: _711  and  _712
REMARK  307  A    between atoms: _712  and  _713
REMARK                            x       y       z     vdW  Elec       q    Type
REMARK                         _______ _______ _______ _____ _____    ______ ____
ROOT
ATOM      1  CA  VAL A   2      57.520  51.668  19.439  0.00  0.00    +0.148 C 
ENDROOT
BRANCH   1   3
ATOM      2  C   ILE A   1      59.029  49.846  20.056  0.00  0.00    +0.238 C 
ATOM      3  N   VAL A   2      57.861  50.467  20.195  0.00  0.00    -0.297 N 
ATOM      4  H   VAL A   2      57.166  50.083  20.866  0.00  0.00    +0.150 HD
ATOM      5  O   ILE A   1      59.923  50.242  19.295  0.00  0.00    -0.274 OA
BRANCH   2   6
ATOM      6  CA  ILE A   1      59.223  48.585  20.892  0.00  0.00    +0.145 C 
BRANCH   6   7
ATOM      7  N   ILE A   1      59.749  47.561  19.997  0.00  0.00    -0.238 NA
ATOM      8  H   ILE A   1      60.514  47.830  19.346  0.00  0.00    +0.142 HD
ENDBRANCH   6   7
BRANCH   6   9
ATOM      9  CB  ILE A   1      60.194  48.886  22.071  0.00  0.00    +0.025 C 
ATOM     10  CG2 ILE A   1      59.701  50.070  22.908  0.00  0.00    +0.002 C 
BRANCH   9  11
ATOM     11  CG1 ILE A   1      60.385  47.655  22.974  0.00  0.00    +0.002 C 
ATOM     12  CD1 ILE A   1      61.572  47.762  23.952  0.00  0.00    +0.000 C 
ENDBRANCH   9  11
ENDBRANCH   6   9
ENDBRANCH   2   6
ENDBRANCH   1   3
BRANCH   1  13
ATOM     13  C   VAL A   2      57.324  52.850  20.388  0.00  0.00    +0.241 C 
ATOM     14  O   VAL A   2      56.573  52.751  21.358  0.00  0.00    -0.273 OA
ATOM     15  N   CYS A   3      58.019  53.952  20.108  0.00  0.00    -0.296 N 
ATOM     16  H   CYS A   3      58.729  53.913  19.349  0.00  0.00    +0.150 HD
BRANCH  15  17
ATOM     17  CA  CYS A   3      57.826  55.216  20.824  0.00  0.00    +0.160 C 
BRANCH  17  18
ATOM     18  C   CYS A   3      57.252  56.274  19.914  0.00  0.00    +0.242 C 
ATOM     19  N   ALA A   4      56.424  57.139  20.488  0.00  0.00    -0.298 N 
ATOM     20  H   ALA A   4      56.025  56.911  21.421  0.00  0.00    +0.150 HD
ATOM     21  O   CYS A   3      57.556  56.308  18.726  0.00  0.00    -0.273 OA
BRANCH  19  22
ATOM     22  CA  ALA A   4      56.059  58.393  19.853  0.00  0.00    +0.137 C 
ATOM     23  CB  ALA A   4      54.757  58.935  20.433  0.00  0.00    +0.030 C 
BRANCH  22  24
ATOM     24  C   ALA A   4      57.194  59.381  20.096  0.00  0.00    +0.227 C 
ATOM     25  O   ALA A   4      57.811  59.380  21.168  0.00  0.00    -0.286 OA
ENDBRANCH  22  24
ENDBRANCH  19  22
ENDBRANCH  17  18
BRANCH  17  26
ATOM     26  CB  CYS A   3      59.154  55.762  21.360  0.00  0.00    +0.098 C 
ATOM     27  SG  CYS A   3      59.820  54.890  22.753  0.00  0.00    -0.080 S 
ENDBRANCH  17  26
ENDBRANCH  15  17
ENDBRANCH   1  13
BRANCH   1  28
ATOM     28  CB  VAL A   2      56.250  51.460  18.552  0.00  0.00    +0.027 C 
ATOM     29  CG2 VAL A   2      55.960  52.681  17.707  0.00  0.00    +0.002 C 
ATOM     30  CG1 VAL A   2      56.407  50.243  17.653  0.00  0.00    +0.002 C 
ENDBRANCH   1  28
TORSDOF 12
REMARK  Name = ../refined-set-2016/3npc/3npc_pocket.pdb
REMARK  307 active torsions:
REMARK  status: ('A' for Active; 'I' for Inactive)
REMARK    1  A    between atoms: _1  and  _3
REMARK    2  A    between atoms: _3  and  _4
REMARK    3  A    between atoms: _3  and  _6
REMARK    4  A    between atoms: _6  and  _7
REMARK    5  A    between atoms: _10  and  _12
REMARK    6  A    between atoms: _12  and  _13
REMARK    7  A    between atoms: _15  and  _17
REMARK    8  A    between atoms: _17  and  _18
REMARK    9  A    between atoms: _17  and  _20
REMARK   10  A    between atoms: _20  and  _21
REMARK   11  A    between atoms: _21  and  _22
REMARK   12  A    between atoms: _27  and  _29
REMARK   13  A    between atoms: _29  and  _30
REMARK   14  A    between atoms: _29  and  _32
REMARK   15  A    between atoms: _32  and  _33
REMARK   16  A    between atoms: _36  and  _38
REMARK   17  A    between atoms: _38  and  _39
REMARK   18  A    between atoms: _38  and  _41
REMARK   19  A    between atoms: _44  and  _46
REMARK   20  A    between atoms: _46  and  _47
REMARK   21  A    between atoms: _46  and  _49
REMARK   22  A    between atoms: _51  and  _53
REMARK   23  A    between atoms: _53  and  _54
REMARK   24  A    between atoms: _57  and  _59
REMARK   25  A    between atoms: _59  and  _60
REMARK   26  A    between atoms: _59  and  _62
REMARK   27  A    between atoms: _62  and  _63
REMARK   28  A    between atoms: _68  and  _70
REMARK   29  A    between atoms: _70  and  _71
REMARK   30  A    between atoms: _70  and  _73
REMARK   31  A    between atoms: _76  and  _78
REMARK   32  A    between atoms: _78  and  _79
REMARK   33  A    between atoms: _82  and  _84
REMARK   34  A    between atoms: _84  and  _85
REMARK   35  A    between atoms: _84  and  _87
REMARK   36  A    between atoms: _90  and  _92
REMARK   37  A    between atoms: _92  and  _93
REMARK   38  A    between atoms: _92  and  _95
REMARK   39  A    between atoms: _95  and  _96
REMARK   40  A    between atoms: _96  and  _97
REMARK   41  A    between atoms: _97  and  _98
REMARK   42  A    between atoms: _98  and  _99
REMARK   43  A    between atoms: _103  and  _105
REMARK   44  A    between atoms: _105  and  _106
REMARK   45  A    between atoms: _105  and  _108
REMARK   46  A    between atoms: _108  and  _109
REMARK   47  A    between atoms: _109  and  _110
REMARK   48  A    between atoms: _110  and  _111
REMARK   49  A    between atoms: _111  and  _112
REMARK   50  A    between atoms: _116  and  _118
REMARK   51  A    between atoms: _118  and  _119
REMARK   52  A    between atoms: _118  and  _121
REMARK   53  A    between atoms: _121  and  _122
REMARK   54  A    between atoms: _125  and  _127
REMARK   55  A    between atoms: _127  and  _128
REMARK   56  A    between atoms: _127  and  _130
REMARK   57  A    between atoms: _130  and  _131
REMARK   58  A    between atoms: _134  and  _136
REMARK   59  A    between atoms: _136  and  _137
REMARK   60  A    between atoms: _136  and  _139
REMARK   61  A    between atoms: _139  and  _140
REMARK   62  A    between atoms: _145  and  _147
REMARK   63  A    between atoms: _147  and  _148
REMARK   64  A    between atoms: _147  and  _150
REMARK   65  A    between atoms: _150  and  _151
REMARK   66  A    between atoms: _151  and  _152
REMARK   67  A    between atoms: _152  and  _153
REMARK   68  A    between atoms: _153  and  _154
REMARK   69  A    between atoms: _158  and  _160
REMARK   70  A    between atoms: _160  and  _161
REMARK   71  A    between atoms: _160  and  _163
REMARK   72  A    between atoms: _163  and  _164
REMARK   73  A    between atoms: _164  and  _165
REMARK   74  A    between atoms: _165  and  _166
REMARK   75  A    between atoms: _175  and  _177
REMARK   76  A    between atoms: _177  and  _178
REMARK   77  A    between atoms: _181  and  _183
REMARK   78  A    between atoms: _183  and  _184
REMARK   79  A    between atoms: _183  and  _186
REMARK   80  A    between atoms: _186  and  _187
REMARK   81  A    between atoms: _192  and  _193
REMARK   82  A    between atoms: _195  and  _197
REMARK   83  A    between atoms: _197  and  _198
REMARK   84  A    between atoms: _197  and  _200
REMARK   85  A    between atoms: _200  and  _201
REMARK   86  A    between atoms: _201  and  _202
REMARK   87  A    between atoms: _202  and  _203
REMARK   88  A    between atoms: _212  and  _214
REMARK   89  A    between atoms: _214  and  _215
REMARK   90  A    between atoms: _214  and  _217
REMARK   91  A    between atoms: _217  and  _218
REMARK   92  A    between atoms: _218  and  _219
REMARK   93  A    between atoms: _222  and  _224
REMARK   94  A    between atoms: _224  and  _225
REMARK   95  A    between atoms: _224  and  _227
REMARK   96  A    between atoms: _227  and  _228
REMARK   97  A    between atoms: _231  and  _233
REMARK   98  A    between atoms: _233  and  _234
REMARK   99  A    between atoms: _233  and  _236
REMARK  100  A    between atoms: _239  and  _241
REMARK  101  A    between atoms: _241  and  _242
REMARK  102  A    between atoms: _241  and  _244
REMARK  103  A    between atoms: _244  and  _245
REMARK  104  A    between atoms: _248  and  _250
REMARK  105  A    between atoms: _250  and  _251
REMARK  106  A    between atoms: _250  and  _253
REMARK  107  A    between atoms: _253  and  _254
REMARK  108  A    between atoms: _257  and  _259
REMARK  109  A    between atoms: _259  and  _260
REMARK  110  A    between atoms: _259  and  _262
REMARK  111  A    between atoms: _262  and  _263
REMARK  112  A    between atoms: _263  and  _264
REMARK  113  A    between atoms: _264  and  _265
REMARK  114  A    between atoms: _265  and  _266
REMARK  115  A    between atoms: _270  and  _272
REMARK  116  A    between atoms: _272  and  _273
REMARK  117  A    between atoms: _272  and  _275
REMARK  118  A    between atoms: _277  and  _279
REMARK  119  A    between atoms: _279  and  _280
REMARK  120  A    between atoms: _279  and  _282
REMARK  121  A    between atoms: _285  and  _287
REMARK  122  A    between atoms: _287  and  _288
REMARK  123  A    between atoms: _287  and  _290
REMARK  124  A    between atoms: _290  and  _291
REMARK  125  A    between atoms: _296  and  _298
REMARK  126  A    between atoms: _298  and  _299
REMARK  127  A    between atoms: _298  and  _301
REMARK  128  A    between atoms: _301  and  _302
REMARK  129  A    between atoms: _305  and  _307
REMARK  130  A    between atoms: _307  and  _308
REMARK  131  A    between atoms: _307  and  _310
REMARK  132  A    between atoms: _310  and  _311
REMARK  133  A    between atoms: _314  and  _316
REMARK  134  A    between atoms: _316  and  _317
REMARK  135  A    between atoms: _316  and  _319
REMARK  136  A    between atoms: _319  and  _320
REMARK  137  A    between atoms: _322  and  _324
REMARK  138  A    between atoms: _324  and  _325
REMARK  139  A    between atoms: _324  and  _327
REMARK  140  A    between atoms: _327  and  _328
REMARK  141  A    between atoms: _331  and  _333
REMARK  142  A    between atoms: _333  and  _334
REMARK  143  A    between atoms: _333  and  _336
REMARK  144  A    between atoms: _336  and  _337
REMARK  145  A    between atoms: _340  and  _342
REMARK  146  A    between atoms: _342  and  _343
REMARK  147  A    between atoms: _342  and  _345
REMARK  148  A    between atoms: _345  and  _346
REMARK  149  A    between atoms: _351  and  _353
REMARK  150  A    between atoms: _353  and  _354
REMARK  151  A    between atoms: _353  and  _356
REMARK  152  A    between atoms: _356  and  _357
REMARK  153  A    between atoms: _362  and  _363
REMARK  154  A    between atoms: _365  and  _367
REMARK  155  A    between atoms: _367  and  _368
REMARK  156  A    between atoms: _367  and  _370
REMARK  157  A    between atoms: _370  and  _371
REMARK  158  A    between atoms: _374  and  _376
REMARK  159  A    between atoms: _376  and  _377
REMARK  160  A    between atoms: _376  and  _379
REMARK  161  A    between atoms: _382  and  _384
REMARK  162  A    between atoms: _384  and  _385
REMARK  163  A    between atoms: _384  and  _387
REMARK  164  A    between atoms: _387  and  _388
REMARK  165  A    between atoms: _388  and  _389
REMARK  166  A    between atoms: _391  and  _393
REMARK  167  A    between atoms: _393  and  _394
REMARK  168  A    between atoms: _393  and  _396
REMARK  169  A    between atoms: _396  and  _397
REMARK  170  A    between atoms: _397  and  _398
REMARK  171  A    between atoms: _401  and  _403
REMARK  172  A    between atoms: _403  and  _404
REMARK  173  A    between atoms: _403  and  _406
REMARK  174  A    between atoms: _406  and  _407
REMARK  175  A    between atoms: _410  and  _412
REMARK  176  A    between atoms: _412  and  _413
REMARK  177  A    between atoms: _412  and  _415
REMARK  178  A    between atoms: _415  and  _416
REMARK  179  A    between atoms: _416  and  _417
REMARK  180  A    between atoms: _419  and  _421
REMARK  181  A    between atoms: _421  and  _422
REMARK  182  A    between atoms: _421  and  _424
REMARK  183  A    between atoms: _424  and  _425
REMARK  184  A    between atoms: _428  and  _430
REMARK  185  A    between atoms: _430  and  _431
REMARK  186  A    between atoms: _434  and  _436
REMARK  187  A    between atoms: _436  and  _437
REMARK  188  A    between atoms: _436  and  _439
REMARK  189  A    between atoms: _439  and  _440
REMARK  190  A    between atoms: _445  and  _447
REMARK  191  A    between atoms: _447  and  _448
REMARK  192  A    between atoms: _447  and  _450
REMARK  193  A    between atoms: _450  and  _451
REMARK  194  A    between atoms: _451  and  _452
REMARK  195  A    between atoms: _457  and  _459
REMARK  196  A    between atoms: _459  and  _460
REMARK  197  A    between atoms: _462  and  _464
REMARK  198  A    between atoms: _464  and  _465
REMARK  199  A    between atoms: _464  and  _467
REMARK  200  A    between atoms: _467  and  _468
REMARK  201  A    between atoms: _471  and  _473
REMARK  202  A    between atoms: _473  and  _474
REMARK  203  A    between atoms: _477  and  _479
REMARK  204  A    between atoms: _479  and  _480
REMARK  205  A    between atoms: _479  and  _482
REMARK  206  A    between atoms: _482  and  _483
REMARK  207  A    between atoms: _486  and  _488
REMARK  208  A    between atoms: _488  and  _489
REMARK  209  A    between atoms: _488  and  _491
REMARK  210  A    between atoms: _491  and  _492
REMARK  211  A    between atoms: _495  and  _497
REMARK  212  A    between atoms: _497  and  _498
REMARK  213  A    between atoms: _497  and  _500
REMARK  214  A    between atoms: _500  and  _501
REMARK  215  A    between atoms: _506  and  _508
REMARK  216  A    between atoms: _508  and  _509
REMARK  217  A    between atoms: _508  and  _511
REMARK  218  A    between atoms: _511  and  _512
REMARK  219  A    between atoms: _512  and  _513
REMARK  220  A    between atoms: _513  and  _514
REMARK  221  A    between atoms: _523  and  _525
REMARK  222  A    between atoms: _525  and  _526
REMARK  223  A    between atoms: _525  and  _528
REMARK  224  A    between atoms: _528  and  _529
REMARK  225  A    between atoms: _532  and  _534
REMARK  226  A    between atoms: _534  and  _535
REMARK  227  A    between atoms: _534  and  _537
REMARK  228  A    between atoms: _537  and  _538
REMARK  229  A    between atoms: _541  and  _543
REMARK  230  A    between atoms: _543  and  _544
REMARK  231  A    between atoms: _543  and  _546
REMARK  232  A    between atoms: _546  and  _547
REMARK  233  A    between atoms: _549  and  _551
REMARK  234  A    between atoms: _551  and  _552
REMARK  235  A    between atoms: _551  and  _554
REMARK  236  A    between atoms: _554  and  _555
REMARK  237  A    between atoms: _560  and  _562
REMARK  238  A    between atoms: _562  and  _563
REMARK  239  A    between atoms: _562  and  _565
REMARK  240  A    between atoms: _565  and  _566
REMARK  241  A    between atoms: _569  and  _571
REMARK  242  A    between atoms: _571  and  _572
REMARK  243  A    between atoms: _571  and  _574
REMARK  244  A    between atoms: _577  and  _579
REMARK  245  A    between atoms: _579  and  _580
REMARK  246  A    between atoms: _579  and  _582
REMARK  247  A    between atoms: _585  and  _587
REMARK  248  A    between atoms: _587  and  _588
REMARK  249  A    between atoms: _587  and  _590
REMARK  250  A    between atoms: _590  and  _591
REMARK  251  A    between atoms: _591  and  _592
REMARK  252  A    between atoms: _592  and  _593
REMARK  253  A    between atoms: _593  and  _594
REMARK  254  A    between atoms: _598  and  _600
REMARK  255  A    between atoms: _600  and  _601
REMARK  256  A    between atoms: _600  and  _603
REMARK  257  A    between atoms: _603  and  _604
REMARK  258  A    between atoms: _604  and  _605
REMARK  259  A    between atoms: _605  and  _606
REMARK  260  A    between atoms: _606  and  _607
REMARK  261  A    between atoms: _611  and  _613
REMARK  262  A    between atoms: _613  and  _614
REMARK  263  A    between atoms: _613  and  _616
REMARK  264  A    between atoms: _616  and  _617
REMARK  265  A    between atoms: _620  and  _622
REMARK  266  A    between atoms: _622  and  _623
REMARK  267  A    between atoms: _622  and  _625
REMARK  268  A    between atoms: _625  and  _626
REMARK  269  A    between atoms: _629  and  _631
REMARK  270  A    between atoms: _631  and  _632
REMARK  271  A    between atoms: _631  and  _634
REMARK  272  A    between atoms: _634  and  _635
REMARK  273  A    between atoms: _638  and  _640
REMARK  274  A    between atoms: _640  and  _641
REMARK  275  A    between atoms: _640  and  _643
REMARK  276  A    between atoms: _643  and  _644
REMARK  277  A    between atoms: _650  and  _652
REMARK  278  A    between atoms: _652  and  _653
REMARK  279  A    between atoms: _655  and  _657
REMARK  280  A    between atoms: _657  and  _658
REMARK  281  A    between atoms: _657  and  _660
REMARK  282  A    between atoms: _660  and  _661
REMARK  283  A    between atoms: _664  and  _666
REMARK  284  A    between atoms: _666  and  _667
REMARK  285  A    between atoms: _670  and  _672
REMARK  286  A    between atoms: _672  and  _673
REMARK  287  A    between atoms: _672  and  _675
REMARK  288  A    between atoms: _675  and  _676
REMARK  289  A    between atoms: _676  and  _677
REMARK  290  A    between atoms: _679  and  _681
REMARK  291  A    between atoms: _681  and  _682
REMARK  292  A    between atoms: _681  and  _684
REMARK  293  A    between atoms: _684  and  _685
REMARK  294  A    between atoms: _685  and  _686
REMARK  295  A    between atoms: _688  and  _690
REMARK  296  A    between atoms: _690  and  _691
REMARK  297  A    between atoms: _690  and  _693
REMARK  298  A    between atoms: _693  and  _694
REMARK  299  A    between atoms: _697  and  _699
REMARK  300  A    between atoms: _699  and  _700
REMARK  301  A    between atoms: _699  and  _702
REMARK  302  A    between atoms: _702  and  _703
REMARK  303  A    between atoms: _706  and  _708
REMARK  304  A    between atoms: _708  and  _709
REMARK  305  A    between atoms: _708  and  _711
REMARK  306  A    between atoms: _711  and  _712
REMARK  307  A    between atoms: _712  and  _713
REMARK                            x       y       z     vdW  Elec       q    Type
REMARK                         _______ _______ _______ _____ _____    ______ ____
ROOT
ATOM      1  C   VAL A   4      60.017  53.673  16.688  0.00  0.00    +0.241 C 
ATOM      2  O   VAL A   4      59.818  53.471  17.882  0.00  0.00    -0.273 OA
ATOM      3  N   LYS A   5      60.192  52.694  15.799  0.00  0.00    -0.297 N 
ATOM      4  H   LYS A   5      60.307  52.944  14.796  0.00  0.00    +0.150 HD
ENDROOT
BRANCH   3   5
ATOM      5  CA  LYS A   5      60.228  51.278  16.182  0.00  0.00    +0.149 C 
BRANCH   5   6
ATOM      6  C   LYS A   5      61.657  50.772  16.325  0.00  0.00    +0.241 C 
ATOM      7  N   LYS A   6      62.014  50.385  17.544  0.00  0.00    -0.297 N 
ATOM      8  H   LYS A   6      61.361  50.546  18.337  0.00  0.00    +0.150 HD
ATOM      9  O   LYS A   5      62.415  50.743  15.359  0.00  0.00    -0.273 OA
BRANCH   7  10
ATOM     10  CA  LYS A   6      63.298  49.739  17.801  0.00  0.00    +0.149 C 
BRANCH  10  11
ATOM     11  C   LYS A   6      63.206  48.219  17.692  0.00  0.00    +0.241 C 
ATOM     12  O   LYS A   6      62.398  47.598  18.380  0.00  0.00    -0.273 OA
ATOM     13  N   LEU A   7      64.039  47.638  16.833  0.00  0.00    -0.298 N 
ATOM     14  H   LEU A   7      64.532  48.228  16.132  0.00  0.00    +0.150 HD
BRANCH  13  15
ATOM     15  CA  LEU A   7      64.282  46.203  16.843  0.00  0.00    +0.137 C 
BRANCH  15  16
ATOM     16  C   LEU A   7      65.595  45.990  17.591  0.00  0.00    +0.227 C 
ATOM     17  O   LEU A   7      66.660  46.396  17.108  0.00  0.00    -0.286 OA
ENDBRANCH  15  16
BRANCH  15  18
ATOM     18  CB  LEU A   7      64.417  45.660  15.419  0.00  0.00    +0.028 C 
BRANCH  18  19
ATOM     19  CG  LEU A   7      63.366  45.960  14.347  0.00  0.00    +0.002 C 
ATOM     20  CD2 LEU A   7      62.147  45.077  14.531  0.00  0.00    +0.000 C 
ATOM     21  CD1 LEU A   7      63.953  45.746  12.987  0.00  0.00    +0.000 C 
ENDBRANCH  18  19
ENDBRANCH  15  18
ENDBRANCH  13  15
ENDBRANCH  10  11
BRANCH  10  22
ATOM     22  CB  LYS A   6      63.837  50.097  19.188  0.00  0.00    +0.029 C 
BRANCH  22  23
ATOM     23  CG  LYS A   6      65.206  49.514  19.452  0.00  0.00    +0.000 C 
BRANCH  23  24
ATOM     24  CD  LYS A   6      65.583  49.588  20.904  0.00  0.00    -0.024 C 
BRANCH  24  25
ATOM     25  CE  LYS A   6      67.066  49.273  21.072  0.00  0.00    -0.086 C 
BRANCH  25  26
ATOM     26  NZ  LYS A   6      67.402  48.952  22.479  0.00  0.00    +0.380 N 
ATOM     27  HZ1 LYS A   6      67.169  49.765  23.084  0.00  0.00    -0.089 HD
ATOM     28  HZ2 LYS A   6      66.854  48.123  22.784  0.00  0.00    -0.089 HD
ATOM     29  HZ3 LYS A   6      68.418  48.744  22.553  0.00  0.00    -0.089 HD
ENDBRANCH  25  26
ENDBRANCH  24  25
ENDBRANCH  23  24
ENDBRANCH  22  23
ENDBRANCH  10  22
ENDBRANCH   7  10
ENDBRANCH   5   6
BRANCH   5  30
ATOM     30  CB  LYS A   5      59.470  50.406  15.176  0.00  0.00    +0.029 C 
BRANCH  30  31
ATOM     31  CG  LYS A   5      59.369  48.941  15.560  0.00  0.00    +0.000 C 
BRANCH  31  32
ATOM     32  CD  LYS A   5      58.673  48.113  14.468  0.00  0.00    -0.024 C 
BRANCH  32  33
ATOM     33  CE  LYS A   5      58.791  46.626  14.755  0.00  0.00    -0.086 C 
BRANCH  33  34
ATOM     34  NZ  LYS A   5      58.066  45.771  13.771  0.00  0.00    +0.380 N 
ATOM     35  HZ1 LYS A   5      58.188  44.770  14.027  0.00  0.00    -0.089 HD
ATOM     36  HZ2 LYS A   5      57.054  46.012  13.783  0.00  0.00    -0.089 HD
ATOM     37  HZ3 LYS A   5      58.451  45.937  12.819  0.00  0.00    -0.089 HD
ENDBRANCH  33  34
ENDBRANCH  32  33
ENDBRANCH  31  32
ENDBRANCH  30  31
ENDBRANCH   5  30
ENDBRANCH   3   5
BRANCH   1  38
ATOM     38  CA  VAL A   4      60.058  55.105  16.144  0.00  0.00    +0.149 C 
BRANCH  38  40
ATOM     39  C   ALA A   3      58.011  56.103  15.269  0.00  0.00    +0.241 C 
ATOM     40  N   VAL A   4      58.764  55.749  16.310  0.00  0.00    -0.297 N 
ATOM     41  H   VAL A   4      58.416  55.939  17.271  0.00  0.00    +0.150 HD
ATOM     42  O   ALA A   3      58.337  55.896  14.100  0.00  0.00    -0.273 OA
BRANCH  39  43
ATOM     43  CA  ALA A   3      56.692  56.798  15.596  0.00  0.00    +0.149 C 
ATOM     44  CB  ALA A   3      55.507  55.873  15.325  0.00  0.00    +0.031 C 
BRANCH  43  47
ATOM     45  C   VAL A   2      56.603  59.230  15.382  0.00  0.00    +0.241 C 
ATOM     46  O   VAL A   2      56.543  59.404  16.599  0.00  0.00    -0.273 OA
ATOM     47  N   ALA A   3      56.584  58.023  14.817  0.00  0.00    -0.297 N 
ATOM     48  H   ALA A   3      56.489  57.954  13.784  0.00  0.00    +0.150 HD
BRANCH  45  49
ATOM     49  CA  VAL A   2      56.720  60.429  14.427  0.00  0.00    +0.148 C 
BRANCH  49  51
ATOM     50  C   ASN A   1      55.584  62.596  14.571  0.00  0.00    +0.239 C 
ATOM     51  N   VAL A   2      56.389  61.683  15.105  0.00  0.00    -0.297 N 
ATOM     52  H   VAL A   2      56.800  61.867  16.042  0.00  0.00    +0.150 HD
ATOM     53  O   ASN A   1      55.072  62.474  13.454  0.00  0.00    -0.274 OA
BRANCH  50  54
ATOM     54  CA  ASN A   1      55.324  63.835  15.419  0.00  0.00    +0.154 C 
BRANCH  54  55
ATOM     55  N   ASN A   1      55.280  65.040  14.605  0.00  0.00    -0.238 NA
ATOM     56  H   ASN A   1      54.368  65.523  14.475  0.00  0.00    +0.142 HD
ENDBRANCH  54  55
BRANCH  54  57
ATOM     57  CB  ASN A   1      54.017  63.682  16.188  0.00  0.00    +0.111 C 
BRANCH  57  58
ATOM     58  CG  ASN A   1      53.906  64.652  17.344  0.00  0.00    +0.221 C 
ATOM     59  OD1 ASN A   1      54.914  65.115  17.884  0.00  0.00    -0.275 OA
ATOM     60  ND2 ASN A   1      52.679  64.954  17.742  0.00  0.00    -0.329 N 
ATOM     61 HD21 ASN A   1      52.537  65.606  18.540  0.00  0.00    +0.145 HD
ATOM     62 HD22 ASN A   1      51.858  64.539  17.256  0.00  0.00    +0.145 HD
ENDBRANCH  57  58
ENDBRANCH  54  57
ENDBRANCH  50  54
ENDBRANCH  49  51
BRANCH  49  63
ATOM     63  CB  VAL A   2      58.157  60.450  13.812  0.00  0.00    +0.027 C 
ATOM     64  CG2 VAL A   2      59.240  60.691  14.892  0.00  0.00    +0.002 C 
ATOM     65  CG1 VAL A   2      58.260  61.465  12.658  0.00  0.00    +0.002 C 
ENDBRANCH  49  63
ENDBRANCH  45  49
ENDBRANCH  43  47
ENDBRANCH  39  43
ENDBRANCH  38  40
BRANCH  38  66
ATOM     66  CB  VAL A   4      61.203  55.926  16.820  0.00  0.00    +0.027 C 
ATOM     67  CG2 VAL A   4      62.566  55.339  16.480  0.00  0.00    +0.002 C 
ATOM     68  CG1 VAL A   4      61.147  57.405  16.397  0.00  0.00    +0.002 C 
ENDBRANCH  38  66
ENDBRANCH   1  38
TORSDOF 30
REMARK  Name = ../refined-set-2016/3npc/3npc_pocket.pdb
REMARK  307 active torsions:
REMARK  status: ('A' for Active; 'I' for Inactive)
REMARK    1  A    between atoms: _1  and  _3
REMARK    2  A    between atoms: _3  and  _4
REMARK    3  A    between atoms: _3  and  _6
REMARK    4  A    between atoms: _6  and  _7
REMARK    5  A    between atoms: _10  and  _12
REMARK    6  A    between atoms: _12  and  _13
REMARK    7  A    between atoms: _15  and  _17
REMARK    8  A    between atoms: _17  and  _18
REMARK    9  A    between atoms: _17  and  _20
REMARK   10  A    between atoms: _20  and  _21
REMARK   11  A    between atoms: _21  and  _22
REMARK   12  A    between atoms: _27  and  _29
REMARK   13  A    between atoms: _29  and  _30
REMARK   14  A    between atoms: _29  and  _32
REMARK   15  A    between atoms: _32  and  _33
REMARK   16  A    between atoms: _36  and  _38
REMARK   17  A    between atoms: _38  and  _39
REMARK   18  A    between atoms: _38  and  _41
REMARK   19  A    between atoms: _44  and  _46
REMARK   20  A    between atoms: _46  and  _47
REMARK   21  A    between atoms: _46  and  _49
REMARK   22  A    between atoms: _51  and  _53
REMARK   23  A    between atoms: _53  and  _54
REMARK   24  A    between atoms: _57  and  _59
REMARK   25  A    between atoms: _59  and  _60
REMARK   26  A    between atoms: _59  and  _62
REMARK   27  A    between atoms: _62  and  _63
REMARK   28  A    between atoms: _68  and  _70
REMARK   29  A    between atoms: _70  and  _71
REMARK   30  A    between atoms: _70  and  _73
REMARK   31  A    between atoms: _76  and  _78
REMARK   32  A    between atoms: _78  and  _79
REMARK   33  A    between atoms: _82  and  _84
REMARK   34  A    between atoms: _84  and  _85
REMARK   35  A    between atoms: _84  and  _87
REMARK   36  A    between atoms: _90  and  _92
REMARK   37  A    between atoms: _92  and  _93
REMARK   38  A    between atoms: _92  and  _95
REMARK   39  A    between atoms: _95  and  _96
REMARK   40  A    between atoms: _96  and  _97
REMARK   41  A    between atoms: _97  and  _98
REMARK   42  A    between atoms: _98  and  _99
REMARK   43  A    between atoms: _103  and  _105
REMARK   44  A    between atoms: _105  and  _106
REMARK   45  A    between atoms: _105  and  _108
REMARK   46  A    between atoms: _108  and  _109
REMARK   47  A    between atoms: _109  and  _110
REMARK   48  A    between atoms: _110  and  _111
REMARK   49  A    between atoms: _111  and  _112
REMARK   50  A    between atoms: _116  and  _118
REMARK   51  A    between atoms: _118  and  _119
REMARK   52  A    between atoms: _118  and  _121
REMARK   53  A    between atoms: _121  and  _122
REMARK   54  A    between atoms: _125  and  _127
REMARK   55  A    between atoms: _127  and  _128
REMARK   56  A    between atoms: _127  and  _130
REMARK   57  A    between atoms: _130  and  _131
REMARK   58  A    between atoms: _134  and  _136
REMARK   59  A    between atoms: _136  and  _137
REMARK   60  A    between atoms: _136  and  _139
REMARK   61  A    between atoms: _139  and  _140
REMARK   62  A    between atoms: _145  and  _147
REMARK   63  A    between atoms: _147  and  _148
REMARK   64  A    between atoms: _147  and  _150
REMARK   65  A    between atoms: _150  and  _151
REMARK   66  A    between atoms: _151  and  _152
REMARK   67  A    between atoms: _152  and  _153
REMARK   68  A    between atoms: _153  and  _154
REMARK   69  A    between atoms: _158  and  _160
REMARK   70  A    between atoms: _160  and  _161
REMARK   71  A    between atoms: _160  and  _163
REMARK   72  A    between atoms: _163  and  _164
REMARK   73  A    between atoms: _164  and  _165
REMARK   74  A    between atoms: _165  and  _166
REMARK   75  A    between atoms: _175  and  _177
REMARK   76  A    between atoms: _177  and  _178
REMARK   77  A    between atoms: _181  and  _183
REMARK   78  A    between atoms: _183  and  _184
REMARK   79  A    between atoms: _183  and  _186
REMARK   80  A    between atoms: _186  and  _187
REMARK   81  A    between atoms: _192  and  _193
REMARK   82  A    between atoms: _195  and  _197
REMARK   83  A    between atoms: _197  and  _198
REMARK   84  A    between atoms: _197  and  _200
REMARK   85  A    between atoms: _200  and  _201
REMARK   86  A    between atoms: _201  and  _202
REMARK   87  A    between atoms: _202  and  _203
REMARK   88  A    between atoms: _212  and  _214
REMARK   89  A    between atoms: _214  and  _215
REMARK   90  A    between atoms: _214  and  _217
REMARK   91  A    between atoms: _217  and  _218
REMARK   92  A    between atoms: _218  and  _219
REMARK   93  A    between atoms: _222  and  _224
REMARK   94  A    between atoms: _224  and  _225
REMARK   95  A    between atoms: _224  and  _227
REMARK   96  A    between atoms: _227  and  _228
REMARK   97  A    between atoms: _231  and  _233
REMARK   98  A    between atoms: _233  and  _234
REMARK   99  A    between atoms: _233  and  _236
REMARK  100  A    between atoms: _239  and  _241
REMARK  101  A    between atoms: _241  and  _242
REMARK  102  A    between atoms: _241  and  _244
REMARK  103  A    between atoms: _244  and  _245
REMARK  104  A    between atoms: _248  and  _250
REMARK  105  A    between atoms: _250  and  _251
REMARK  106  A    between atoms: _250  and  _253
REMARK  107  A    between atoms: _253  and  _254
REMARK  108  A    between atoms: _257  and  _259
REMARK  109  A    between atoms: _259  and  _260
REMARK  110  A    between atoms: _259  and  _262
REMARK  111  A    between atoms: _262  and  _263
REMARK  112  A    between atoms: _263  and  _264
REMARK  113  A    between atoms: _264  and  _265
REMARK  114  A    between atoms: _265  and  _266
REMARK  115  A    between atoms: _270  and  _272
REMARK  116  A    between atoms: _272  and  _273
REMARK  117  A    between atoms: _272  and  _275
REMARK  118  A    between atoms: _277  and  _279
REMARK  119  A    between atoms: _279  and  _280
REMARK  120  A    between atoms: _279  and  _282
REMARK  121  A    between atoms: _285  and  _287
REMARK  122  A    between atoms: _287  and  _288
REMARK  123  A    between atoms: _287  and  _290
REMARK  124  A    between atoms: _290  and  _291
REMARK  125  A    between atoms: _296  and  _298
REMARK  126  A    between atoms: _298  and  _299
REMARK  127  A    between atoms: _298  and  _301
REMARK  128  A    between atoms: _301  and  _302
REMARK  129  A    between atoms: _305  and  _307
REMARK  130  A    between atoms: _307  and  _308
REMARK  131  A    between atoms: _307  and  _310
REMARK  132  A    between atoms: _310  and  _311
REMARK  133  A    between atoms: _314  and  _316
REMARK  134  A    between atoms: _316  and  _317
REMARK  135  A    between atoms: _316  and  _319
REMARK  136  A    between atoms: _319  and  _320
REMARK  137  A    between atoms: _322  and  _324
REMARK  138  A    between atoms: _324  and  _325
REMARK  139  A    between atoms: _324  and  _327
REMARK  140  A    between atoms: _327  and  _328
REMARK  141  A    between atoms: _331  and  _333
REMARK  142  A    between atoms: _333  and  _334
REMARK  143  A    between atoms: _333  and  _336
REMARK  144  A    between atoms: _336  and  _337
REMARK  145  A    between atoms: _340  and  _342
REMARK  146  A    between atoms: _342  and  _343
REMARK  147  A    between atoms: _342  and  _345
REMARK  148  A    between atoms: _345  and  _346
REMARK  149  A    between atoms: _351  and  _353
REMARK  150  A    between atoms: _353  and  _354
REMARK  151  A    between atoms: _353  and  _356
REMARK  152  A    between atoms: _356  and  _357
REMARK  153  A    between atoms: _362  and  _363
REMARK  154  A    between atoms: _365  and  _367
REMARK  155  A    between atoms: _367  and  _368
REMARK  156  A    between atoms: _367  and  _370
REMARK  157  A    between atoms: _370  and  _371
REMARK  158  A    between atoms: _374  and  _376
REMARK  159  A    between atoms: _376  and  _377
REMARK  160  A    between atoms: _376  and  _379
REMARK  161  A    between atoms: _382  and  _384
REMARK  162  A    between atoms: _384  and  _385
REMARK  163  A    between atoms: _384  and  _387
REMARK  164  A    between atoms: _387  and  _388
REMARK  165  A    between atoms: _388  and  _389
REMARK  166  A    between atoms: _391  and  _393
REMARK  167  A    between atoms: _393  and  _394
REMARK  168  A    between atoms: _393  and  _396
REMARK  169  A    between atoms: _396  and  _397
REMARK  170  A    between atoms: _397  and  _398
REMARK  171  A    between atoms: _401  and  _403
REMARK  172  A    between atoms: _403  and  _404
REMARK  173  A    between atoms: _403  and  _406
REMARK  174  A    between atoms: _406  and  _407
REMARK  175  A    between atoms: _410  and  _412
REMARK  176  A    between atoms: _412  and  _413
REMARK  177  A    between atoms: _412  and  _415
REMARK  178  A    between atoms: _415  and  _416
REMARK  179  A    between atoms: _416  and  _417
REMARK  180  A    between atoms: _419  and  _421
REMARK  181  A    between atoms: _421  and  _422
REMARK  182  A    between atoms: _421  and  _424
REMARK  183  A    between atoms: _424  and  _425
REMARK  184  A    between atoms: _428  and  _430
REMARK  185  A    between atoms: _430  and  _431
REMARK  186  A    between atoms: _434  and  _436
REMARK  187  A    between atoms: _436  and  _437
REMARK  188  A    between atoms: _436  and  _439
REMARK  189  A    between atoms: _439  and  _440
REMARK  190  A    between atoms: _445  and  _447
REMARK  191  A    between atoms: _447  and  _448
REMARK  192  A    between atoms: _447  and  _450
REMARK  193  A    between atoms: _450  and  _451
REMARK  194  A    between atoms: _451  and  _452
REMARK  195  A    between atoms: _457  and  _459
REMARK  196  A    between atoms: _459  and  _460
REMARK  197  A    between atoms: _462  and  _464
REMARK  198  A    between atoms: _464  and  _465
REMARK  199  A    between atoms: _464  and  _467
REMARK  200  A    between atoms: _467  and  _468
REMARK  201  A    between atoms: _471  and  _473
REMARK  202  A    between atoms: _473  and  _474
REMARK  203  A    between atoms: _477  and  _479
REMARK  204  A    between atoms: _479  and  _480
REMARK  205  A    between atoms: _479  and  _482
REMARK  206  A    between atoms: _482  and  _483
REMARK  207  A    between atoms: _486  and  _488
REMARK  208  A    between atoms: _488  and  _489
REMARK  209  A    between atoms: _488  and  _491
REMARK  210  A    between atoms: _491  and  _492
REMARK  211  A    between atoms: _495  and  _497
REMARK  212  A    between atoms: _497  and  _498
REMARK  213  A    between atoms: _497  and  _500
REMARK  214  A    between atoms: _500  and  _501
REMARK  215  A    between atoms: _506  and  _508
REMARK  216  A    between atoms: _508  and  _509
REMARK  217  A    between atoms: _508  and  _511
REMARK  218  A    between atoms: _511  and  _512
REMARK  219  A    between atoms: _512  and  _513
REMARK  220  A    between atoms: _513  and  _514
REMARK  221  A    between atoms: _523  and  _525
REMARK  222  A    between atoms: _525  and  _526
REMARK  223  A    between atoms: _525  and  _528
REMARK  224  A    between atoms: _528  and  _529
REMARK  225  A    between atoms: _532  and  _534
REMARK  226  A    between atoms: _534  and  _535
REMARK  227  A    between atoms: _534  and  _537
REMARK  228  A    between atoms: _537  and  _538
REMARK  229  A    between atoms: _541  and  _543
REMARK  230  A    between atoms: _543  and  _544
REMARK  231  A    between atoms: _543  and  _546
REMARK  232  A    between atoms: _546  and  _547
REMARK  233  A    between atoms: _549  and  _551
REMARK  234  A    between atoms: _551  and  _552
REMARK  235  A    between atoms: _551  and  _554
REMARK  236  A    between atoms: _554  and  _555
REMARK  237  A    between atoms: _560  and  _562
REMARK  238  A    between atoms: _562  and  _563
REMARK  239  A    between atoms: _562  and  _565
REMARK  240  A    between atoms: _565  and  _566
REMARK  241  A    between atoms: _569  and  _571
REMARK  242  A    between atoms: _571  and  _572
REMARK  243  A    between atoms: _571  and  _574
REMARK  244  A    between atoms: _577  and  _579
REMARK  245  A    between atoms: _579  and  _580
REMARK  246  A    between atoms: _579  and  _582
REMARK  247  A    between atoms: _585  and  _587
REMARK  248  A    between atoms: _587  and  _588
REMARK  249  A    between atoms: _587  and  _590
REMARK  250  A    between atoms: _590  and  _591
REMARK  251  A    between atoms: _591  and  _592
REMARK  252  A    between atoms: _592  and  _593
REMARK  253  A    between atoms: _593  and  _594
REMARK  254  A    between atoms: _598  and  _600
REMARK  255  A    between atoms: _600  and  _601
REMARK  256  A    between atoms: _600  and  _603
REMARK  257  A    between atoms: _603  and  _604
REMARK  258  A    between atoms: _604  and  _605
REMARK  259  A    between atoms: _605  and  _606
REMARK  260  A    between atoms: _606  and  _607
REMARK  261  A    between atoms: _611  and  _613
REMARK  262  A    between atoms: _613  and  _614
REMARK  263  A    between atoms: _613  and  _616
REMARK  264  A    between atoms: _616  and  _617
REMARK  265  A    between atoms: _620  and  _622
REMARK  266  A    between atoms: _622  and  _623
REMARK  267  A    between atoms: _622  and  _625
REMARK  268  A    between atoms: _625  and  _626
REMARK  269  A    between atoms: _629  and  _631
REMARK  270  A    between atoms: _631  and  _632
REMARK  271  A    between atoms: _631  and  _634
REMARK  272  A    between atoms: _634  and  _635
REMARK  273  A    between atoms: _638  and  _640
REMARK  274  A    between atoms: _640  and  _641
REMARK  275  A    between atoms: _640  and  _643
REMARK  276  A    between atoms: _643  and  _644
REMARK  277  A    between atoms: _650  and  _652
REMARK  278  A    between atoms: _652  and  _653
REMARK  279  A    between atoms: _655  and  _657
REMARK  280  A    between atoms: _657  and  _658
REMARK  281  A    between atoms: _657  and  _660
REMARK  282  A    between atoms: _660  and  _661
REMARK  283  A    between atoms: _664  and  _666
REMARK  284  A    between atoms: _666  and  _667
REMARK  285  A    between atoms: _670  and  _672
REMARK  286  A    between atoms: _672  and  _673
REMARK  287  A    between atoms: _672  and  _675
REMARK  288  A    between atoms: _675  and  _676
REMARK  289  A    between atoms: _676  and  _677
REMARK  290  A    between atoms: _679  and  _681
REMARK  291  A    between atoms: _681  and  _682
REMARK  292  A    between atoms: _681  and  _684
REMARK  293  A    between atoms: _684  and  _685
REMARK  294  A    between atoms: _685  and  _686
REMARK  295  A    between atoms: _688  and  _690
REMARK  296  A    between atoms: _690  and  _691
REMARK  297  A    between atoms: _690  and  _693
REMARK  298  A    between atoms: _693  and  _694
REMARK  299  A    between atoms: _697  and  _699
REMARK  300  A    between atoms: _699  and  _700
REMARK  301  A    between atoms: _699  and  _702
REMARK  302  A    between atoms: _702  and  _703
REMARK  303  A    between atoms: _706  and  _708
REMARK  304  A    between atoms: _708  and  _709
REMARK  305  A    between atoms: _708  and  _711
REMARK  306  A    between atoms: _711  and  _712
REMARK  307  A    between atoms: _712  and  _713
REMARK                            x       y       z     vdW  Elec       q    Type
REMARK                         _______ _______ _______ _____ _____    ______ ____
ROOT
ATOM      1  C   THR A   1      63.261  35.215  14.434  0.00  0.00    +0.241 C 
ATOM      2  N   HIS A   2      63.998  35.876  15.319  0.00  0.00    -0.298 N 
ATOM      3  H   HIS A   2      64.532  35.340  16.032  0.00  0.00    +0.150 HD
ATOM      4  O   THR A   1      62.582  35.779  13.571  0.00  0.00    -0.274 OA
ENDROOT
BRANCH   1   5
ATOM      5  CA  THR A   1      63.303  33.684  14.521  0.00  0.00    +0.172 C 
BRANCH   5   6
ATOM      6  N   THR A   1      64.676  33.190  14.612  0.00  0.00    -0.236 NA
ATOM      7  H   THR A   1      64.982  32.717  15.486  0.00  0.00    +0.142 HD
ENDBRANCH   5   6
BRANCH   5   8
ATOM      8  CB  THR A   1      62.450  33.166  15.705  0.00  0.00    +0.135 C 
ATOM      9  CG2 THR A   1      60.995  33.608  15.577  0.00  0.00    +0.034 C 
BRANCH   8  10
ATOM     10  OG1 THR A   1      62.484  31.734  15.715  0.00  0.00    -0.383 OA
ATOM     11  HG1 THR A   1      63.420  31.428  15.819  0.00  0.00    +0.210 HD
ENDBRANCH   8  10
ENDBRANCH   5   8
ENDBRANCH   1   5
BRANCH   2  12
ATOM     12  CA  HIS A   2      64.080  37.337  15.319  0.00  0.00    +0.143 C 
BRANCH  12  13
ATOM     13  C   HIS A   2      64.705  37.865  14.032  0.00  0.00    +0.227 C 
ATOM     14  O   HIS A   2      64.242  38.861  13.479  0.00  0.00    -0.286 OA
ENDBRANCH  12  13
BRANCH  12  15
ATOM     15  CB  HIS A   2      64.897  37.834  16.520  0.00  0.00    +0.075 C 
BRANCH  15  16
ATOM     16  CG  HIS A   2      64.162  37.785  17.821  0.00  0.00    +0.082 A 
ATOM     17  CD2 HIS A   2      63.772  36.740  18.587  0.00  0.00    +0.115 A 
ATOM     18  NE2 HIS A   2      63.138  37.260  19.689  0.00  0.00    -0.221 NA
ATOM     19  CE1 HIS A   2      63.142  38.579  19.604  0.00  0.00    +0.199 A 
ATOM     20  ND1 HIS A   2      63.751  38.921  18.483  0.00  0.00    -0.227 NA
ENDBRANCH  15  16
ENDBRANCH  12  15
ENDBRANCH   2  12
TORSDOF 8
REMARK  Name = ../refined-set-2016/3npc/3npc_pocket.pdb
REMARK  307 active torsions:
REMARK  status: ('A' for Active; 'I' for Inactive)
REMARK    1  A    between atoms: _1  and  _3
REMARK    2  A    between atoms: _3  and  _4
REMARK    3  A    between atoms: _3  and  _6
REMARK    4  A    between atoms: _6  and  _7
REMARK    5  A    between atoms: _10  and  _12
REMARK    6  A    between atoms: _12  and  _13
REMARK    7  A    between atoms: _15  and  _17
REMARK    8  A    between atoms: _17  and  _18
REMARK    9  A    between atoms: _17  and  _20
REMARK   10  A    between atoms: _20  and  _21
REMARK   11  A    between atoms: _21  and  _22
REMARK   12  A    between atoms: _27  and  _29
REMARK   13  A    between atoms: _29  and  _30
REMARK   14  A    between atoms: _29  and  _32
REMARK   15  A    between atoms: _32  and  _33
REMARK   16  A    between atoms: _36  and  _38
REMARK   17  A    between atoms: _38  and  _39
REMARK   18  A    between atoms: _38  and  _41
REMARK   19  A    between atoms: _44  and  _46
REMARK   20  A    between atoms: _46  and  _47
REMARK   21  A    between atoms: _46  and  _49
REMARK   22  A    between atoms: _51  and  _53
REMARK   23  A    between atoms: _53  and  _54
REMARK   24  A    between atoms: _57  and  _59
REMARK   25  A    between atoms: _59  and  _60
REMARK   26  A    between atoms: _59  and  _62
REMARK   27  A    between atoms: _62  and  _63
REMARK   28  A    between atoms: _68  and  _70
REMARK   29  A    between atoms: _70  and  _71
REMARK   30  A    between atoms: _70  and  _73
REMARK   31  A    between atoms: _76  and  _78
REMARK   32  A    between atoms: _78  and  _79
REMARK   33  A    between atoms: _82  and  _84
REMARK   34  A    between atoms: _84  and  _85
REMARK   35  A    between atoms: _84  and  _87
REMARK   36  A    between atoms: _90  and  _92
REMARK   37  A    between atoms: _92  and  _93
REMARK   38  A    between atoms: _92  and  _95
REMARK   39  A    between atoms: _95  and  _96
REMARK   40  A    between atoms: _96  and  _97
REMARK   41  A    between atoms: _97  and  _98
REMARK   42  A    between atoms: _98  and  _99
REMARK   43  A    between atoms: _103  and  _105
REMARK   44  A    between atoms: _105  and  _106
REMARK   45  A    between atoms: _105  and  _108
REMARK   46  A    between atoms: _108  and  _109
REMARK   47  A    between atoms: _109  and  _110
REMARK   48  A    between atoms: _110  and  _111
REMARK   49  A    between atoms: _111  and  _112
REMARK   50  A    between atoms: _116  and  _118
REMARK   51  A    between atoms: _118  and  _119
REMARK   52  A    between atoms: _118  and  _121
REMARK   53  A    between atoms: _121  and  _122
REMARK   54  A    between atoms: _125  and  _127
REMARK   55  A    between atoms: _127  and  _128
REMARK   56  A    between atoms: _127  and  _130
REMARK   57  A    between atoms: _130  and  _131
REMARK   58  A    between atoms: _134  and  _136
REMARK   59  A    between atoms: _136  and  _137
REMARK   60  A    between atoms: _136  and  _139
REMARK   61  A    between atoms: _139  and  _140
REMARK   62  A    between atoms: _145  and  _147
REMARK   63  A    between atoms: _147  and  _148
REMARK   64  A    between atoms: _147  and  _150
REMARK   65  A    between atoms: _150  and  _151
REMARK   66  A    between atoms: _151  and  _152
REMARK   67  A    between atoms: _152  and  _153
REMARK   68  A    between atoms: _153  and  _154
REMARK   69  A    between atoms: _158  and  _160
REMARK   70  A    between atoms: _160  and  _161
REMARK   71  A    between atoms: _160  and  _163
REMARK   72  A    between atoms: _163  and  _164
REMARK   73  A    between atoms: _164  and  _165
REMARK   74  A    between atoms: _165  and  _166
REMARK   75  A    between atoms: _175  and  _177
REMARK   76  A    between atoms: _177  and  _178
REMARK   77  A    between atoms: _181  and  _183
REMARK   78  A    between atoms: _183  and  _184
REMARK   79  A    between atoms: _183  and  _186
REMARK   80  A    between atoms: _186  and  _187
REMARK   81  A    between atoms: _192  and  _193
REMARK   82  A    between atoms: _195  and  _197
REMARK   83  A    between atoms: _197  and  _198
REMARK   84  A    between atoms: _197  and  _200
REMARK   85  A    between atoms: _200  and  _201
REMARK   86  A    between atoms: _201  and  _202
REMARK   87  A    between atoms: _202  and  _203
REMARK   88  A    between atoms: _212  and  _214
REMARK   89  A    between atoms: _214  and  _215
REMARK   90  A    between atoms: _214  and  _217
REMARK   91  A    between atoms: _217  and  _218
REMARK   92  A    between atoms: _218  and  _219
REMARK   93  A    between atoms: _222  and  _224
REMARK   94  A    between atoms: _224  and  _225
REMARK   95  A    between atoms: _224  and  _227
REMARK   96  A    between atoms: _227  and  _228
REMARK   97  A    between atoms: _231  and  _233
REMARK   98  A    between atoms: _233  and  _234
REMARK   99  A    between atoms: _233  and  _236
REMARK  100  A    between atoms: _239  and  _241
REMARK  101  A    between atoms: _241  and  _242
REMARK  102  A    between atoms: _241  and  _244
REMARK  103  A    between atoms: _244  and  _245
REMARK  104  A    between atoms: _248  and  _250
REMARK  105  A    between atoms: _250  and  _251
REMARK  106  A    between atoms: _250  and  _253
REMARK  107  A    between atoms: _253  and  _254
REMARK  108  A    between atoms: _257  and  _259
REMARK  109  A    between atoms: _259  and  _260
REMARK  110  A    between atoms: _259  and  _262
REMARK  111  A    between atoms: _262  and  _263
REMARK  112  A    between atoms: _263  and  _264
REMARK  113  A    between atoms: _264  and  _265
REMARK  114  A    between atoms: _265  and  _266
REMARK  115  A    between atoms: _270  and  _272
REMARK  116  A    between atoms: _272  and  _273
REMARK  117  A    between atoms: _272  and  _275
REMARK  118  A    between atoms: _277  and  _279
REMARK  119  A    between atoms: _279  and  _280
REMARK  120  A    between atoms: _279  and  _282
REMARK  121  A    between atoms: _285  and  _287
REMARK  122  A    between atoms: _287  and  _288
REMARK  123  A    between atoms: _287  and  _290
REMARK  124  A    between atoms: _290  and  _291
REMARK  125  A    between atoms: _296  and  _298
REMARK  126  A    between atoms: _298  and  _299
REMARK  127  A    between atoms: _298  and  _301
REMARK  128  A    between atoms: _301  and  _302
REMARK  129  A    between atoms: _305  and  _307
REMARK  130  A    between atoms: _307  and  _308
REMARK  131  A    between atoms: _307  and  _310
REMARK  132  A    between atoms: _310  and  _311
REMARK  133  A    between atoms: _314  and  _316
REMARK  134  A    between atoms: _316  and  _317
REMARK  135  A    between atoms: _316  and  _319
REMARK  136  A    between atoms: _319  and  _320
REMARK  137  A    between atoms: _322  and  _324
REMARK  138  A    between atoms: _324  and  _325
REMARK  139  A    between atoms: _324  and  _327
REMARK  140  A    between atoms: _327  and  _328
REMARK  141  A    between atoms: _331  and  _333
REMARK  142  A    between atoms: _333  and  _334
REMARK  143  A    between atoms: _333  and  _336
REMARK  144  A    between atoms: _336  and  _337
REMARK  145  A    between atoms: _340  and  _342
REMARK  146  A    between atoms: _342  and  _343
REMARK  147  A    between atoms: _342  and  _345
REMARK  148  A    between atoms: _345  and  _346
REMARK  149  A    between atoms: _351  and  _353
REMARK  150  A    between atoms: _353  and  _354
REMARK  151  A    between atoms: _353  and  _356
REMARK  152  A    between atoms: _356  and  _357
REMARK  153  A    between atoms: _362  and  _363
REMARK  154  A    between atoms: _365  and  _367
REMARK  155  A    between atoms: _367  and  _368
REMARK  156  A    between atoms: _367  and  _370
REMARK  157  A    between atoms: _370  and  _371
REMARK  158  A    between atoms: _374  and  _376
REMARK  159  A    between atoms: _376  and  _377
REMARK  160  A    between atoms: _376  and  _379
REMARK  161  A    between atoms: _382  and  _384
REMARK  162  A    between atoms: _384  and  _385
REMARK  163  A    between atoms: _384  and  _387
REMARK  164  A    between atoms: _387  and  _388
REMARK  165  A    between atoms: _388  and  _389
REMARK  166  A    between atoms: _391  and  _393
REMARK  167  A    between atoms: _393  and  _394
REMARK  168  A    between atoms: _393  and  _396
REMARK  169  A    between atoms: _396  and  _397
REMARK  170  A    between atoms: _397  and  _398
REMARK  171  A    between atoms: _401  and  _403
REMARK  172  A    between atoms: _403  and  _404
REMARK  173  A    between atoms: _403  and  _406
REMARK  174  A    between atoms: _406  and  _407
REMARK  175  A    between atoms: _410  and  _412
REMARK  176  A    between atoms: _412  and  _413
REMARK  177  A    between atoms: _412  and  _415
REMARK  178  A    between atoms: _415  and  _416
REMARK  179  A    between atoms: _416  and  _417
REMARK  180  A    between atoms: _419  and  _421
REMARK  181  A    between atoms: _421  and  _422
REMARK  182  A    between atoms: _421  and  _424
REMARK  183  A    between atoms: _424  and  _425
REMARK  184  A    between atoms: _428  and  _430
REMARK  185  A    between atoms: _430  and  _431
REMARK  186  A    between atoms: _434  and  _436
REMARK  187  A    between atoms: _436  and  _437
REMARK  188  A    between atoms: _436  and  _439
REMARK  189  A    between atoms: _439  and  _440
REMARK  190  A    between atoms: _445  and  _447
REMARK  191  A    between atoms: _447  and  _448
REMARK  192  A    between atoms: _447  and  _450
REMARK  193  A    between atoms: _450  and  _451
REMARK  194  A    between atoms: _451  and  _452
REMARK  195  A    between atoms: _457  and  _459
REMARK  196  A    between atoms: _459  and  _460
REMARK  197  A    between atoms: _462  and  _464
REMARK  198  A    between atoms: _464  and  _465
REMARK  199  A    between atoms: _464  and  _467
REMARK  200  A    between atoms: _467  and  _468
REMARK  201  A    between atoms: _471  and  _473
REMARK  202  A    between atoms: _473  and  _474
REMARK  203  A    between atoms: _477  and  _479
REMARK  204  A    between atoms: _479  and  _480
REMARK  205  A    between atoms: _479  and  _482
REMARK  206  A    between atoms: _482  and  _483
REMARK  207  A    between atoms: _486  and  _488
REMARK  208  A    between atoms: _488  and  _489
REMARK  209  A    between atoms: _488  and  _491
REMARK  210  A    between atoms: _491  and  _492
REMARK  211  A    between atoms: _495  and  _497
REMARK  212  A    between atoms: _497  and  _498
REMARK  213  A    between atoms: _497  and  _500
REMARK  214  A    between atoms: _500  and  _501
REMARK  215  A    between atoms: _506  and  _508
REMARK  216  A    between atoms: _508  and  _509
REMARK  217  A    between atoms: _508  and  _511
REMARK  218  A    between atoms: _511  and  _512
REMARK  219  A    between atoms: _512  and  _513
REMARK  220  A    between atoms: _513  and  _514
REMARK  221  A    between atoms: _523  and  _525
REMARK  222  A    between atoms: _525  and  _526
REMARK  223  A    between atoms: _525  and  _528
REMARK  224  A    between atoms: _528  and  _529
REMARK  225  A    between atoms: _532  and  _534
REMARK  226  A    between atoms: _534  and  _535
REMARK  227  A    between atoms: _534  and  _537
REMARK  228  A    between atoms: _537  and  _538
REMARK  229  A    between atoms: _541  and  _543
REMARK  230  A    between atoms: _543  and  _544
REMARK  231  A    between atoms: _543  and  _546
REMARK  232  A    between atoms: _546  and  _547
REMARK  233  A    between atoms: _549  and  _551
REMARK  234  A    between atoms: _551  and  _552
REMARK  235  A    between atoms: _551  and  _554
REMARK  236  A    between atoms: _554  and  _555
REMARK  237  A    between atoms: _560  and  _562
REMARK  238  A    between atoms: _562  and  _563
REMARK  239  A    between atoms: _562  and  _565
REMARK  240  A    between atoms: _565  and  _566
REMARK  241  A    between atoms: _569  and  _571
REMARK  242  A    between atoms: _571  and  _572
REMARK  243  A    between atoms: _571  and  _574
REMARK  244  A    between atoms: _577  and  _579
REMARK  245  A    between atoms: _579  and  _580
REMARK  246  A    between atoms: _579  and  _582
REMARK  247  A    between atoms: _585  and  _587
REMARK  248  A    between atoms: _587  and  _588
REMARK  249  A    between atoms: _587  and  _590
REMARK  250  A    between atoms: _590  and  _591
REMARK  251  A    between atoms: _591  and  _592
REMARK  252  A    between atoms: _592  and  _593
REMARK  253  A    between atoms: _593  and  _594
REMARK  254  A    between atoms: _598  and  _600
REMARK  255  A    between atoms: _600  and  _601
REMARK  256  A    between atoms: _600  and  _603
REMARK  257  A    between atoms: _603  and  _604
REMARK  258  A    between atoms: _604  and  _605
REMARK  259  A    between atoms: _605  and  _606
REMARK  260  A    between atoms: _606  and  _607
REMARK  261  A    between atoms: _611  and  _613
REMARK  262  A    between atoms: _613  and  _614
REMARK  263  A    between atoms: _613  and  _616
REMARK  264  A    between atoms: _616  and  _617
REMARK  265  A    between atoms: _620  and  _622
REMARK  266  A    between atoms: _622  and  _623
REMARK  267  A    between atoms: _622  and  _625
REMARK  268  A    between atoms: _625  and  _626
REMARK  269  A    between atoms: _629  and  _631
REMARK  270  A    between atoms: _631  and  _632
REMARK  271  A    between atoms: _631  and  _634
REMARK  272  A    between atoms: _634  and  _635
REMARK  273  A    between atoms: _638  and  _640
REMARK  274  A    between atoms: _640  and  _641
REMARK  275  A    between atoms: _640  and  _643
REMARK  276  A    between atoms: _643  and  _644
REMARK  277  A    between atoms: _650  and  _652
REMARK  278  A    between atoms: _652  and  _653
REMARK  279  A    between atoms: _655  and  _657
REMARK  280  A    between atoms: _657  and  _658
REMARK  281  A    between atoms: _657  and  _660
REMARK  282  A    between atoms: _660  and  _661
REMARK  283  A    between atoms: _664  and  _666
REMARK  284  A    between atoms: _666  and  _667
REMARK  285  A    between atoms: _670  and  _672
REMARK  286  A    between atoms: _672  and  _673
REMARK  287  A    between atoms: _672  and  _675
REMARK  288  A    between atoms: _675  and  _676
REMARK  289  A    between atoms: _676  and  _677
REMARK  290  A    between atoms: _679  and  _681
REMARK  291  A    between atoms: _681  and  _682
REMARK  292  A    between atoms: _681  and  _684
REMARK  293  A    between atoms: _684  and  _685
REMARK  294  A    between atoms: _685  and  _686
REMARK  295  A    between atoms: _688  and  _690
REMARK  296  A    between atoms: _690  and  _691
REMARK  297  A    between atoms: _690  and  _693
REMARK  298  A    between atoms: _693  and  _694
REMARK  299  A    between atoms: _697  and  _699
REMARK  300  A    between atoms: _699  and  _700
REMARK  301  A    between atoms: _699  and  _702
REMARK  302  A    between atoms: _702  and  _703
REMARK  303  A    between atoms: _706  and  _708
REMARK  304  A    between atoms: _708  and  _709
REMARK  305  A    between atoms: _708  and  _711
REMARK  306  A    between atoms: _711  and  _712
REMARK  307  A    between atoms: _712  and  _713
REMARK                            x       y       z     vdW  Elec       q    Type
REMARK                         _______ _______ _______ _____ _____    ______ ____
ROOT
ATOM      1  CA  GLU A   6      60.174  43.658   7.612  0.00  0.00    +0.149 C 
ENDROOT
BRANCH   1   2
ATOM      2  C   GLU A   6      60.858  44.710   6.746  0.00  0.00    +0.241 C 
ATOM      3  N   LEU A   7      62.192  44.749   6.807  0.00  0.00    -0.297 N 
ATOM      4  H   LEU A   7      62.688  44.073   7.422  0.00  0.00    +0.150 HD
ATOM      5  O   GLU A   6      60.185  45.471   6.043  0.00  0.00    -0.273 OA
BRANCH   3   6
ATOM      6  CA  LEU A   7      62.978  45.715   6.035  0.00  0.00    +0.149 C 
BRANCH   6   7
ATOM      7  C   LEU A   7      62.773  45.537   4.531  0.00  0.00    +0.241 C 
ATOM      8  N   VAL A   8      62.693  44.284   4.097  0.00  0.00    -0.297 N 
ATOM      9  H   VAL A   8      62.733  43.511   4.792  0.00  0.00    +0.150 HD
ATOM     10  O   LEU A   7      62.677  46.524   3.794  0.00  0.00    -0.273 OA
BRANCH   8  11
ATOM     11  CA  VAL A   8      62.551  43.948   2.678  0.00  0.00    +0.149 C 
BRANCH  11  12
ATOM     12  C   VAL A   8      61.137  44.248   2.149  0.00  0.00    +0.241 C 
ATOM     13  N   LEU A   9      60.111  43.895   2.926  0.00  0.00    -0.297 N 
ATOM     14  H   LEU A   9      60.302  43.400   3.821  0.00  0.00    +0.150 HD
ATOM     15  O   VAL A   8      60.991  44.803   1.056  0.00  0.00    -0.273 OA
BRANCH  13  16
ATOM     16  CA  LEU A   9      58.722  44.185   2.554  0.00  0.00    +0.149 C 
BRANCH  16  17
ATOM     17  C   LEU A   9      58.481  45.693   2.426  0.00  0.00    +0.241 C 
ATOM     18  N   LEU A  10      58.963  46.464   3.394  0.00  0.00    -0.297 N 
ATOM     19  H   LEU A  10      59.466  46.019   4.188  0.00  0.00    +0.150 HD
ATOM     20  O   LEU A   9      57.898  46.152   1.445  0.00  0.00    -0.273 OA
BRANCH  18  21
ATOM     21  CA  LEU A  10      58.808  47.923   3.379  0.00  0.00    +0.149 C 
BRANCH  21  22
ATOM     22  C   LEU A  10      59.595  48.615   2.252  0.00  0.00    +0.241 C 
ATOM     23  O   LEU A  10      59.292  49.741   1.859  0.00  0.00    -0.273 OA
ATOM     24  N   LYS A  11      60.601  47.914   1.747  0.00  0.00    -0.297 N 
ATOM     25  H   LYS A  11      60.843  47.013   2.206  0.00  0.00    +0.150 HD
BRANCH  24  26
ATOM     26  CA  LYS A  11      61.390  48.323   0.592  0.00  0.00    +0.149 C 
BRANCH  26  27
ATOM     27  C   LYS A  11      60.583  48.185  -0.713  0.00  0.00    +0.241 C 
ATOM     28  N   CYS A  12      59.639  47.245  -0.742  0.00  0.00    -0.296 N 
ATOM     29  H   CYS A  12      59.453  46.687   0.116  0.00  0.00    +0.150 HD
ATOM     30  O   LYS A  11      60.808  48.923  -1.668  0.00  0.00    -0.273 OA
BRANCH  28  31
ATOM     31  CA  CYS A  12      58.853  46.976  -1.957  0.00  0.00    +0.160 C 
BRANCH  31  32
ATOM     32  C   CYS A  12      57.613  47.849  -2.143  0.00  0.00    +0.242 C 
ATOM     33  N   VAL A  13      57.240  48.618  -1.124  0.00  0.00    -0.298 N 
ATOM     34  H   VAL A  13      57.830  48.654  -0.268  0.00  0.00    +0.150 HD
ATOM     35  O   CYS A  12      56.988  47.794  -3.199  0.00  0.00    -0.273 OA
BRANCH  33  36
ATOM     36  CA  VAL A  13      56.014  49.415  -1.185  0.00  0.00    +0.137 C 
BRANCH  36  37
ATOM     37  CB  VAL A  13      54.991  49.048  -0.064  0.00  0.00    +0.026 C 
ATOM     38  CG2 VAL A  13      55.566  49.270   1.323  0.00  0.00    +0.002 C 
ATOM     39  CG1 VAL A  13      54.518  47.618  -0.219  0.00  0.00    +0.002 C 
ENDBRANCH  36  37
BRANCH  36  40
ATOM     40  C   VAL A  13      56.302  50.914  -1.182  0.00  0.00    +0.227 C 
ATOM     41  O   VAL A  13      57.301  51.372  -0.615  0.00  0.00    -0.286 OA
ENDBRANCH  36  40
ENDBRANCH  33  36
ENDBRANCH  31  32
BRANCH  31  42
ATOM     42  CB  CYS A  12      58.433  45.506  -2.021  0.00  0.00    +0.098 C 
ATOM     43  SG  CYS A  12      59.816  44.401  -1.996  0.00  0.00    -0.080 S 
ENDBRANCH  31  42
ENDBRANCH  28  31
ENDBRANCH  26  27
BRANCH  26  44
ATOM     44  CB  LYS A  11      62.656  47.449   0.559  0.00  0.00    +0.029 C 
BRANCH  44  45
ATOM     45  CG  LYS A  11      63.601  47.649  -0.596  0.00  0.00    +0.000 C 
BRANCH  45  46
ATOM     46  CD  LYS A  11      64.832  46.750  -0.436  0.00  0.00    -0.024 C 
BRANCH  46  47
ATOM     47  CE  LYS A  11      64.591  45.345  -1.000  0.00  0.00    -0.086 C 
BRANCH  47  48
ATOM     48  NZ  LYS A  11      65.788  44.481  -0.803  0.00  0.00    +0.380 N 
ATOM     49  HZ1 LYS A  11      65.994  44.403   0.213  0.00  0.00    -0.089 HD
ATOM     50  HZ2 LYS A  11      65.600  43.536  -1.193  0.00  0.00    -0.089 HD
ATOM     51  HZ3 LYS A  11      66.603  44.903  -1.292  0.00  0.00    -0.089 HD
ENDBRANCH  47  48
ENDBRANCH  46  47
ENDBRANCH  45  46
ENDBRANCH  44  45
ENDBRANCH  26  44
ENDBRANCH  24  26
ENDBRANCH  21  22
BRANCH  21  52
ATOM     52  CB  LEU A  10      59.185  48.504   4.748  0.00  0.00    +0.029 C 
BRANCH  52  53
ATOM     53  CG  LEU A  10      58.239  48.131   5.902  0.00  0.00    +0.002 C 
ATOM     54  CD2 LEU A  10      58.879  48.386   7.255  0.00  0.00    +0.000 C 
ATOM     55  CD1 LEU A  10      56.917  48.859   5.781  0.00  0.00    +0.000 C 
ENDBRANCH  52  53
ENDBRANCH  21  52
ENDBRANCH  18  21
ENDBRANCH  16  17
BRANCH  16  56
ATOM     56  CB  LEU A   9      57.734  43.545   3.544  0.00  0.00    +0.029 C 
BRANCH  56  57
ATOM     57  CG  LEU A   9      57.588  42.014   3.545  0.00  0.00    +0.002 C 
ATOM     58  CD2 LEU A   9      56.887  41.508   4.820  0.00  0.00    +0.000 C 
ATOM     59  CD1 LEU A   9      56.858  41.506   2.310  0.00  0.00    +0.000 C 
ENDBRANCH  56  57
ENDBRANCH  16  56
ENDBRANCH  13  16
ENDBRANCH  11  12
BRANCH  11  60
ATOM     60  CB  VAL A   8      63.008  42.479   2.372  0.00  0.00    +0.027 C 
ATOM     61  CG2 VAL A   8      64.516  42.363   2.494  0.00  0.00    +0.002 C 
ATOM     62  CG1 VAL A   8      62.573  42.040   0.988  0.00  0.00    +0.002 C 
ENDBRANCH  11  60
ENDBRANCH   8  11
ENDBRANCH   6   7
BRANCH   6  63
ATOM     63  CB  LEU A   7      64.473  45.627   6.388  0.00  0.00    +0.029 C 
BRANCH  63  64
ATOM     64  CG  LEU A   7      64.915  46.160   7.762  0.00  0.00    +0.002 C 
ATOM     65  CD2 LEU A   7      66.209  45.494   8.229  0.00  0.00    +0.000 C 
ATOM     66  CD1 LEU A   7      65.062  47.677   7.762  0.00  0.00    +0.000 C 
ENDBRANCH  63  64
ENDBRANCH   6  63
ENDBRANCH   3   6
ENDBRANCH   1   2
BRANCH   1  68
ATOM     67  C   ARG A   5      60.805  41.740   6.277  0.00  0.00    +0.241 C 
ATOM     68  N   GLU A   6      60.800  42.348   7.460  0.00  0.00    -0.297 N 
ATOM     69  H   GLU A   6      61.244  41.888   8.280  0.00  0.00    +0.150 HD
ATOM     70  O   ARG A   5      60.310  42.251   5.280  0.00  0.00    -0.273 OA
BRANCH  67  71
ATOM     71  CA  ARG A   5      61.483  40.365   6.176  0.00  0.00    +0.149 C 
BRANCH  71  73
ATOM     72  C   TYR A   4      63.734  41.144   6.671  0.00  0.00    +0.241 C 
ATOM     73  N   ARG A   5      62.736  40.305   6.925  0.00  0.00    -0.297 N 
ATOM     74  H   ARG A   5      62.849  39.591   7.672  0.00  0.00    +0.150 HD
ATOM     75  O   TYR A   4      63.684  41.986   5.768  0.00  0.00    -0.273 OA
BRANCH  72  76
ATOM     76  CA  TYR A   4      64.974  41.039   7.581  0.00  0.00    +0.153 C 
BRANCH  76  79
ATOM     77  C   ALA A   3      64.003  41.981   9.606  0.00  0.00    +0.241 C 
ATOM     78  O   ALA A   3      63.740  43.047   9.049  0.00  0.00    -0.273 OA
ATOM     79  N   TYR A   4      64.586  40.959   8.985  0.00  0.00    -0.297 N 
ATOM     80  H   TYR A   4      64.770  40.082   9.513  0.00  0.00    +0.150 HD
BRANCH  77  81
ATOM     81  CA  ALA A   3      63.664  41.770  11.079  0.00  0.00    +0.149 C 
ATOM     82  CB  ALA A   3      64.916  41.937  11.944  0.00  0.00    +0.031 C 
BRANCH  81  84
ATOM     83  C   ARG A   2      61.866  40.140  10.788  0.00  0.00    +0.241 C 
ATOM     84  N   ALA A   3      63.056  40.463  11.295  0.00  0.00    -0.297 N 
ATOM     85  H   ALA A   3      63.568  39.759  11.864  0.00  0.00    +0.150 HD
ATOM     86  O   ARG A   2      61.146  40.934  10.185  0.00  0.00    -0.273 OA
BRANCH  83  87
ATOM     87  CA  ARG A   2      61.421  38.697  10.979  0.00  0.00    +0.149 C 
BRANCH  87  89
ATOM     88  C   LYS A   1      63.045  37.429   9.677  0.00  0.00    +0.238 C 
ATOM     89  N   ARG A   2      62.526  37.751  10.856  0.00  0.00    -0.297 N 
ATOM     90  H   ARG A   2      62.918  37.317  11.716  0.00  0.00    +0.150 HD
ATOM     91  O   LYS A   1      62.664  37.935   8.624  0.00  0.00    -0.274 OA
BRANCH  88  92
ATOM     92  CA  LYS A   1      64.180  36.404   9.686  0.00  0.00    +0.145 C 
BRANCH  92  93
ATOM     93  N   LYS A   1      65.026  36.554  10.865  0.00  0.00    -0.238 NA
ATOM     94  H   LYS A   1      65.086  35.759  11.532  0.00  0.00    +0.142 HD
ENDBRANCH  92  93
BRANCH  92  95
ATOM     95  CB  LYS A   1      63.601  34.992   9.641  0.00  0.00    +0.026 C 
BRANCH  95  96
ATOM     96  CG  LYS A   1      63.135  34.527   8.272  0.00  0.00    -0.000 C 
BRANCH  96  97
ATOM     97  CD  LYS A   1      62.059  33.456   8.396  0.00  0.00    -0.024 C 
BRANCH  97  98
ATOM     98  CE  LYS A   1      61.677  32.904   7.025  0.00  0.00    -0.086 C 
BRANCH  98  99
ATOM     99  NZ  LYS A   1      60.248  32.471   6.949  0.00  0.00    +0.380 N 
ATOM    100  HZ1 LYS A   1      60.076  31.723   7.651  0.00  0.00    -0.089 HD
ATOM    101  HZ2 LYS A   1      59.630  33.284   7.147  0.00  0.00    -0.089 HD
ATOM    102  HZ3 LYS A   1      60.048  32.106   5.996  0.00  0.00    -0.089 HD
ENDBRANCH  98  99
ENDBRANCH  97  98
ENDBRANCH  96  97
ENDBRANCH  95  96
ENDBRANCH  92  95
ENDBRANCH  88  92
ENDBRANCH  87  89
BRANCH  87 103
ATOM    103  CB  ARG A   2      60.689  38.499  12.305  0.00  0.00    +0.033 C 
BRANCH 103 104
ATOM    104  CG  ARG A   2      59.717  37.336  12.225  0.00  0.00    +0.045 C 
BRANCH 104 105
ATOM    105  CD  ARG A   2      59.046  36.989  13.546  0.00  0.00    +0.174 C 
BRANCH 105 106
ATOM    106  NE  ARG A   2      58.495  35.632  13.456  0.00  0.00    -0.265 N 
ATOM    107  CZ  ARG A   2      58.003  34.936  14.478  0.00  0.00    +0.342 C 
ATOM    108  NH2 ARG A   2      57.978  35.459  15.704  0.00  0.00    -0.292 N 
ATOM    109 HH21 ARG A   2      57.592  34.908  16.497  0.00  0.00    +0.255 HD
ATOM    110 HH22 ARG A   2      58.345  36.418  15.868  0.00  0.00    +0.255 HD
ATOM    111  NH1 ARG A   2      57.539  33.705  14.272  0.00  0.00    -0.292 N 
ATOM    112 HH11 ARG A   2      57.153  33.155  15.066  0.00  0.00    +0.255 HD
ATOM    113 HH12 ARG A   2      57.563  33.293  13.317  0.00  0.00    +0.255 HD
ATOM    114  HE  ARG A   2      58.488  35.179  12.520  0.00  0.00    +0.259 HD
ENDBRANCH 105 106
ENDBRANCH 104 105
ENDBRANCH 103 104
ENDBRANCH  87 103
ENDBRANCH  83  87
ENDBRANCH  81  84
ENDBRANCH  77  81
ENDBRANCH  76  79
BRANCH  76 115
ATOM    115  CB  TYR A   4      65.895  39.869   7.184  0.00  0.00    +0.055 C 
BRANCH 115 116
ATOM    116  CG  TYR A   4      66.318  39.900   5.728  0.00  0.00    -0.020 A 
ATOM    117  CD2 TYR A   4      67.331  40.767   5.289  0.00  0.00    -0.001 A 
ATOM    118  CE2 TYR A   4      67.712  40.817   3.944  0.00  0.00    +0.036 A 
ATOM    119  CZ  TYR A   4      67.077  39.981   3.028  0.00  0.00    +0.134 A 
ATOM    120  CE1 TYR A   4      66.064  39.114   3.436  0.00  0.00    +0.036 A 
ATOM    121  CD1 TYR A   4      65.695  39.077   4.783  0.00  0.00    -0.001 A 
BRANCH 119 122
ATOM    122  OH  TYR A   4      67.446  40.012   1.702  0.00  0.00    -0.506 OA
ATOM    123  HH  TYR A   4      68.172  40.674   1.578  0.00  0.00    +0.292 HD
ENDBRANCH 119 122
ENDBRANCH 115 116
ENDBRANCH  76 115
ENDBRANCH  72  76
ENDBRANCH  71  73
BRANCH  71 124
ATOM    124  CB  ARG A   5      60.527  39.241   6.590  0.00  0.00    +0.033 C 
BRANCH 124 125
ATOM    125  CG  ARG A   5      59.288  39.150   5.703  0.00  0.00    +0.045 C 
BRANCH 125 126
ATOM    126  CD  ARG A   5      58.440  37.887   5.952  0.00  0.00    +0.174 C 
BRANCH 126 127
ATOM    127  NE  ARG A   5      57.696  37.911   7.213  0.00  0.00    -0.265 N 
ATOM    128  CZ  ARG A   5      57.932  37.107   8.248  0.00  0.00    +0.342 C 
ATOM    129  NH2 ARG A   5      57.189  37.205   9.346  0.00  0.00    -0.292 N 
ATOM    130 HH21 ARG A   5      57.372  36.578  10.155  0.00  0.00    +0.255 HD
ATOM    131 HH22 ARG A   5      56.425  37.909   9.396  0.00  0.00    +0.255 HD
ATOM    132  NH1 ARG A   5      58.904  36.203   8.187  0.00  0.00    -0.292 N 
ATOM    133 HH11 ARG A   5      59.084  35.578   8.998  0.00  0.00    +0.255 HD
ATOM    134 HH12 ARG A   5      59.485  36.121   7.328  0.00  0.00    +0.255 HD
ATOM    135  HE  ARG A   5      56.928  38.606   7.307  0.00  0.00    +0.259 HD
ENDBRANCH 126 127
ENDBRANCH 125 126
ENDBRANCH 124 125
ENDBRANCH  71 124
ENDBRANCH  67  71
ENDBRANCH   1  68
BRANCH   1 136
ATOM    136  CB  GLU A   6      60.127  44.113   9.078  0.00  0.00    +0.041 C 
BRANCH 136 137
ATOM    137  CG  GLU A   6      59.442  45.459   9.244  0.00  0.00    +0.116 C 
BRANCH 137 138
ATOM    138  CD  GLU A   6      59.071  45.804  10.675  0.00  0.00    +0.365 C 
ATOM    139  OE2 GLU A   6      59.784  45.410  11.613  0.00  0.00    -0.246 OA
ATOM    140  OE1 GLU A   6      58.065  46.510  10.861  0.00  0.00    -0.246 OA
ENDBRANCH 137 138
ENDBRANCH 136 137
ENDBRANCH   1 136
TORSDOF 59
REMARK  Name = ../refined-set-2016/3npc/3npc_pocket.pdb
REMARK  307 active torsions:
REMARK  status: ('A' for Active; 'I' for Inactive)
REMARK    1  A    between atoms: _1  and  _3
REMARK    2  A    between atoms: _3  and  _4
REMARK    3  A    between atoms: _3  and  _6
REMARK    4  A    between atoms: _6  and  _7
REMARK    5  A    between atoms: _10  and  _12
REMARK    6  A    between atoms: _12  and  _13
REMARK    7  A    between atoms: _15  and  _17
REMARK    8  A    between atoms: _17  and  _18
REMARK    9  A    between atoms: _17  and  _20
REMARK   10  A    between atoms: _20  and  _21
REMARK   11  A    between atoms: _21  and  _22
REMARK   12  A    between atoms: _27  and  _29
REMARK   13  A    between atoms: _29  and  _30
REMARK   14  A    between atoms: _29  and  _32
REMARK   15  A    between atoms: _32  and  _33
REMARK   16  A    between atoms: _36  and  _38
REMARK   17  A    between atoms: _38  and  _39
REMARK   18  A    between atoms: _38  and  _41
REMARK   19  A    between atoms: _44  and  _46
REMARK   20  A    between atoms: _46  and  _47
REMARK   21  A    between atoms: _46  and  _49
REMARK   22  A    between atoms: _51  and  _53
REMARK   23  A    between atoms: _53  and  _54
REMARK   24  A    between atoms: _57  and  _59
REMARK   25  A    between atoms: _59  and  _60
REMARK   26  A    between atoms: _59  and  _62
REMARK   27  A    between atoms: _62  and  _63
REMARK   28  A    between atoms: _68  and  _70
REMARK   29  A    between atoms: _70  and  _71
REMARK   30  A    between atoms: _70  and  _73
REMARK   31  A    between atoms: _76  and  _78
REMARK   32  A    between atoms: _78  and  _79
REMARK   33  A    between atoms: _82  and  _84
REMARK   34  A    between atoms: _84  and  _85
REMARK   35  A    between atoms: _84  and  _87
REMARK   36  A    between atoms: _90  and  _92
REMARK   37  A    between atoms: _92  and  _93
REMARK   38  A    between atoms: _92  and  _95
REMARK   39  A    between atoms: _95  and  _96
REMARK   40  A    between atoms: _96  and  _97
REMARK   41  A    between atoms: _97  and  _98
REMARK   42  A    between atoms: _98  and  _99
REMARK   43  A    between atoms: _103  and  _105
REMARK   44  A    between atoms: _105  and  _106
REMARK   45  A    between atoms: _105  and  _108
REMARK   46  A    between atoms: _108  and  _109
REMARK   47  A    between atoms: _109  and  _110
REMARK   48  A    between atoms: _110  and  _111
REMARK   49  A    between atoms: _111  and  _112
REMARK   50  A    between atoms: _116  and  _118
REMARK   51  A    between atoms: _118  and  _119
REMARK   52  A    between atoms: _118  and  _121
REMARK   53  A    between atoms: _121  and  _122
REMARK   54  A    between atoms: _125  and  _127
REMARK   55  A    between atoms: _127  and  _128
REMARK   56  A    between atoms: _127  and  _130
REMARK   57  A    between atoms: _130  and  _131
REMARK   58  A    between atoms: _134  and  _136
REMARK   59  A    between atoms: _136  and  _137
REMARK   60  A    between atoms: _136  and  _139
REMARK   61  A    between atoms: _139  and  _140
REMARK   62  A    between atoms: _145  and  _147
REMARK   63  A    between atoms: _147  and  _148
REMARK   64  A    between atoms: _147  and  _150
REMARK   65  A    between atoms: _150  and  _151
REMARK   66  A    between atoms: _151  and  _152
REMARK   67  A    between atoms: _152  and  _153
REMARK   68  A    between atoms: _153  and  _154
REMARK   69  A    between atoms: _158  and  _160
REMARK   70  A    between atoms: _160  and  _161
REMARK   71  A    between atoms: _160  and  _163
REMARK   72  A    between atoms: _163  and  _164
REMARK   73  A    between atoms: _164  and  _165
REMARK   74  A    between atoms: _165  and  _166
REMARK   75  A    between atoms: _175  and  _177
REMARK   76  A    between atoms: _177  and  _178
REMARK   77  A    between atoms: _181  and  _183
REMARK   78  A    between atoms: _183  and  _184
REMARK   79  A    between atoms: _183  and  _186
REMARK   80  A    between atoms: _186  and  _187
REMARK   81  A    between atoms: _192  and  _193
REMARK   82  A    between atoms: _195  and  _197
REMARK   83  A    between atoms: _197  and  _198
REMARK   84  A    between atoms: _197  and  _200
REMARK   85  A    between atoms: _200  and  _201
REMARK   86  A    between atoms: _201  and  _202
REMARK   87  A    between atoms: _202  and  _203
REMARK   88  A    between atoms: _212  and  _214
REMARK   89  A    between atoms: _214  and  _215
REMARK   90  A    between atoms: _214  and  _217
REMARK   91  A    between atoms: _217  and  _218
REMARK   92  A    between atoms: _218  and  _219
REMARK   93  A    between atoms: _222  and  _224
REMARK   94  A    between atoms: _224  and  _225
REMARK   95  A    between atoms: _224  and  _227
REMARK   96  A    between atoms: _227  and  _228
REMARK   97  A    between atoms: _231  and  _233
REMARK   98  A    between atoms: _233  and  _234
REMARK   99  A    between atoms: _233  and  _236
REMARK  100  A    between atoms: _239  and  _241
REMARK  101  A    between atoms: _241  and  _242
REMARK  102  A    between atoms: _241  and  _244
REMARK  103  A    between atoms: _244  and  _245
REMARK  104  A    between atoms: _248  and  _250
REMARK  105  A    between atoms: _250  and  _251
REMARK  106  A    between atoms: _250  and  _253
REMARK  107  A    between atoms: _253  and  _254
REMARK  108  A    between atoms: _257  and  _259
REMARK  109  A    between atoms: _259  and  _260
REMARK  110  A    between atoms: _259  and  _262
REMARK  111  A    between atoms: _262  and  _263
REMARK  112  A    between atoms: _263  and  _264
REMARK  113  A    between atoms: _264  and  _265
REMARK  114  A    between atoms: _265  and  _266
REMARK  115  A    between atoms: _270  and  _272
REMARK  116  A    between atoms: _272  and  _273
REMARK  117  A    between atoms: _272  and  _275
REMARK  118  A    between atoms: _277  and  _279
REMARK  119  A    between atoms: _279  and  _280
REMARK  120  A    between atoms: _279  and  _282
REMARK  121  A    between atoms: _285  and  _287
REMARK  122  A    between atoms: _287  and  _288
REMARK  123  A    between atoms: _287  and  _290
REMARK  124  A    between atoms: _290  and  _291
REMARK  125  A    between atoms: _296  and  _298
REMARK  126  A    between atoms: _298  and  _299
REMARK  127  A    between atoms: _298  and  _301
REMARK  128  A    between atoms: _301  and  _302
REMARK  129  A    between atoms: _305  and  _307
REMARK  130  A    between atoms: _307  and  _308
REMARK  131  A    between atoms: _307  and  _310
REMARK  132  A    between atoms: _310  and  _311
REMARK  133  A    between atoms: _314  and  _316
REMARK  134  A    between atoms: _316  and  _317
REMARK  135  A    between atoms: _316  and  _319
REMARK  136  A    between atoms: _319  and  _320
REMARK  137  A    between atoms: _322  and  _324
REMARK  138  A    between atoms: _324  and  _325
REMARK  139  A    between atoms: _324  and  _327
REMARK  140  A    between atoms: _327  and  _328
REMARK  141  A    between atoms: _331  and  _333
REMARK  142  A    between atoms: _333  and  _334
REMARK  143  A    between atoms: _333  and  _336
REMARK  144  A    between atoms: _336  and  _337
REMARK  145  A    between atoms: _340  and  _342
REMARK  146  A    between atoms: _342  and  _343
REMARK  147  A    between atoms: _342  and  _345
REMARK  148  A    between atoms: _345  and  _346
REMARK  149  A    between atoms: _351  and  _353
REMARK  150  A    between atoms: _353  and  _354
REMARK  151  A    between atoms: _353  and  _356
REMARK  152  A    between atoms: _356  and  _357
REMARK  153  A    between atoms: _362  and  _363
REMARK  154  A    between atoms: _365  and  _367
REMARK  155  A    between atoms: _367  and  _368
REMARK  156  A    between atoms: _367  and  _370
REMARK  157  A    between atoms: _370  and  _371
REMARK  158  A    between atoms: _374  and  _376
REMARK  159  A    between atoms: _376  and  _377
REMARK  160  A    between atoms: _376  and  _379
REMARK  161  A    between atoms: _382  and  _384
REMARK  162  A    between atoms: _384  and  _385
REMARK  163  A    between atoms: _384  and  _387
REMARK  164  A    between atoms: _387  and  _388
REMARK  165  A    between atoms: _388  and  _389
REMARK  166  A    between atoms: _391  and  _393
REMARK  167  A    between atoms: _393  and  _394
REMARK  168  A    between atoms: _393  and  _396
REMARK  169  A    between atoms: _396  and  _397
REMARK  170  A    between atoms: _397  and  _398
REMARK  171  A    between atoms: _401  and  _403
REMARK  172  A    between atoms: _403  and  _404
REMARK  173  A    between atoms: _403  and  _406
REMARK  174  A    between atoms: _406  and  _407
REMARK  175  A    between atoms: _410  and  _412
REMARK  176  A    between atoms: _412  and  _413
REMARK  177  A    between atoms: _412  and  _415
REMARK  178  A    between atoms: _415  and  _416
REMARK  179  A    between atoms: _416  and  _417
REMARK  180  A    between atoms: _419  and  _421
REMARK  181  A    between atoms: _421  and  _422
REMARK  182  A    between atoms: _421  and  _424
REMARK  183  A    between atoms: _424  and  _425
REMARK  184  A    between atoms: _428  and  _430
REMARK  185  A    between atoms: _430  and  _431
REMARK  186  A    between atoms: _434  and  _436
REMARK  187  A    between atoms: _436  and  _437
REMARK  188  A    between atoms: _436  and  _439
REMARK  189  A    between atoms: _439  and  _440
REMARK  190  A    between atoms: _445  and  _447
REMARK  191  A    between atoms: _447  and  _448
REMARK  192  A    between atoms: _447  and  _450
REMARK  193  A    between atoms: _450  and  _451
REMARK  194  A    between atoms: _451  and  _452
REMARK  195  A    between atoms: _457  and  _459
REMARK  196  A    between atoms: _459  and  _460
REMARK  197  A    between atoms: _462  and  _464
REMARK  198  A    between atoms: _464  and  _465
REMARK  199  A    between atoms: _464  and  _467
REMARK  200  A    between atoms: _467  and  _468
REMARK  201  A    between atoms: _471  and  _473
REMARK  202  A    between atoms: _473  and  _474
REMARK  203  A    between atoms: _477  and  _479
REMARK  204  A    between atoms: _479  and  _480
REMARK  205  A    between atoms: _479  and  _482
REMARK  206  A    between atoms: _482  and  _483
REMARK  207  A    between atoms: _486  and  _488
REMARK  208  A    between atoms: _488  and  _489
REMARK  209  A    between atoms: _488  and  _491
REMARK  210  A    between atoms: _491  and  _492
REMARK  211  A    between atoms: _495  and  _497
REMARK  212  A    between atoms: _497  and  _498
REMARK  213  A    between atoms: _497  and  _500
REMARK  214  A    between atoms: _500  and  _501
REMARK  215  A    between atoms: _506  and  _508
REMARK  216  A    between atoms: _508  and  _509
REMARK  217  A    between atoms: _508  and  _511
REMARK  218  A    between atoms: _511  and  _512
REMARK  219  A    between atoms: _512  and  _513
REMARK  220  A    between atoms: _513  and  _514
REMARK  221  A    between atoms: _523  and  _525
REMARK  222  A    between atoms: _525  and  _526
REMARK  223  A    between atoms: _525  and  _528
REMARK  224  A    between atoms: _528  and  _529
REMARK  225  A    between atoms: _532  and  _534
REMARK  226  A    between atoms: _534  and  _535
REMARK  227  A    between atoms: _534  and  _537
REMARK  228  A    between atoms: _537  and  _538
REMARK  229  A    between atoms: _541  and  _543
REMARK  230  A    between atoms: _543  and  _544
REMARK  231  A    between atoms: _543  and  _546
REMARK  232  A    between atoms: _546  and  _547
REMARK  233  A    between atoms: _549  and  _551
REMARK  234  A    between atoms: _551  and  _552
REMARK  235  A    between atoms: _551  and  _554
REMARK  236  A    between atoms: _554  and  _555
REMARK  237  A    between atoms: _560  and  _562
REMARK  238  A    between atoms: _562  and  _563
REMARK  239  A    between atoms: _562  and  _565
REMARK  240  A    between atoms: _565  and  _566
REMARK  241  A    between atoms: _569  and  _571
REMARK  242  A    between atoms: _571  and  _572
REMARK  243  A    between atoms: _571  and  _574
REMARK  244  A    between atoms: _577  and  _579
REMARK  245  A    between atoms: _579  and  _580
REMARK  246  A    between atoms: _579  and  _582
REMARK  247  A    between atoms: _585  and  _587
REMARK  248  A    between atoms: _587  and  _588
REMARK  249  A    between atoms: _587  and  _590
REMARK  250  A    between atoms: _590  and  _591
REMARK  251  A    between atoms: _591  and  _592
REMARK  252  A    between atoms: _592  and  _593
REMARK  253  A    between atoms: _593  and  _594
REMARK  254  A    between atoms: _598  and  _600
REMARK  255  A    between atoms: _600  and  _601
REMARK  256  A    between atoms: _600  and  _603
REMARK  257  A    between atoms: _603  and  _604
REMARK  258  A    between atoms: _604  and  _605
REMARK  259  A    between atoms: _605  and  _606
REMARK  260  A    between atoms: _606  and  _607
REMARK  261  A    between atoms: _611  and  _613
REMARK  262  A    between atoms: _613  and  _614
REMARK  263  A    between atoms: _613  and  _616
REMARK  264  A    between atoms: _616  and  _617
REMARK  265  A    between atoms: _620  and  _622
REMARK  266  A    between atoms: _622  and  _623
REMARK  267  A    between atoms: _622  and  _625
REMARK  268  A    between atoms: _625  and  _626
REMARK  269  A    between atoms: _629  and  _631
REMARK  270  A    between atoms: _631  and  _632
REMARK  271  A    between atoms: _631  and  _634
REMARK  272  A    between atoms: _634  and  _635
REMARK  273  A    between atoms: _638  and  _640
REMARK  274  A    between atoms: _640  and  _641
REMARK  275  A    between atoms: _640  and  _643
REMARK  276  A    between atoms: _643  and  _644
REMARK  277  A    between atoms: _650  and  _652
REMARK  278  A    between atoms: _652  and  _653
REMARK  279  A    between atoms: _655  and  _657
REMARK  280  A    between atoms: _657  and  _658
REMARK  281  A    between atoms: _657  and  _660
REMARK  282  A    between atoms: _660  and  _661
REMARK  283  A    between atoms: _664  and  _666
REMARK  284  A    between atoms: _666  and  _667
REMARK  285  A    between atoms: _670  and  _672
REMARK  286  A    between atoms: _672  and  _673
REMARK  287  A    between atoms: _672  and  _675
REMARK  288  A    between atoms: _675  and  _676
REMARK  289  A    between atoms: _676  and  _677
REMARK  290  A    between atoms: _679  and  _681
REMARK  291  A    between atoms: _681  and  _682
REMARK  292  A    between atoms: _681  and  _684
REMARK  293  A    between atoms: _684  and  _685
REMARK  294  A    between atoms: _685  and  _686
REMARK  295  A    between atoms: _688  and  _690
REMARK  296  A    between atoms: _690  and  _691
REMARK  297  A    between atoms: _690  and  _693
REMARK  298  A    between atoms: _693  and  _694
REMARK  299  A    between atoms: _697  and  _699
REMARK  300  A    between atoms: _699  and  _700
REMARK  301  A    between atoms: _699  and  _702
REMARK  302  A    between atoms: _702  and  _703
REMARK  303  A    between atoms: _706  and  _708
REMARK  304  A    between atoms: _708  and  _709
REMARK  305  A    between atoms: _708  and  _711
REMARK  306  A    between atoms: _711  and  _712
REMARK  307  A    between atoms: _712  and  _713
REMARK                            x       y       z     vdW  Elec       q    Type
REMARK                         _______ _______ _______ _____ _____    ______ ____
ROOT
ATOM      1  CA  SER A   4      56.128  54.467   4.429  0.00  0.00    +0.178 C 
ENDROOT
BRANCH   1   2
ATOM      2  C   SER A   4      57.142  54.967   5.450  0.00  0.00    +0.243 C 
ATOM      3  O   SER A   4      56.833  55.821   6.278  0.00  0.00    -0.273 OA
ATOM      4  N   LEU A   5      58.355  54.446   5.364  0.00  0.00    -0.297 N 
ATOM      5  H   LEU A   5      58.555  53.760   4.608  0.00  0.00    +0.150 HD
BRANCH   4   6
ATOM      6  CA  LEU A   5      59.420  54.801   6.292  0.00  0.00    +0.149 C 
BRANCH   6   7
ATOM      7  C   LEU A   5      60.035  56.160   5.983  0.00  0.00    +0.241 C 
ATOM      8  N   LEU A   6      59.994  57.055   6.964  0.00  0.00    -0.297 N 
ATOM      9  H   LEU A   6      59.475  56.827   7.836  0.00  0.00    +0.150 HD
ATOM     10  O   LEU A   5      60.524  56.395   4.874  0.00  0.00    -0.273 OA
BRANCH   8  11
ATOM     11  CA  LEU A   6      60.657  58.346   6.851  0.00  0.00    +0.149 C 
BRANCH  11  12
ATOM     12  C   LEU A   6      62.161  58.240   7.086  0.00  0.00    +0.241 C 
ATOM     13  N   ASN A   7      62.580  57.196   7.788  0.00  0.00    -0.298 N 
ATOM     14  H   ASN A   7      61.888  56.482   8.092  0.00  0.00    +0.150 HD
ATOM     15  O   LEU A   6      62.926  59.095   6.646  0.00  0.00    -0.273 OA
BRANCH  13  16
ATOM     16  CA  ASN A   7      63.980  57.021   8.145  0.00  0.00    +0.146 C 
BRANCH  16  17
ATOM     17  C   ASN A   7      64.221  55.636   8.663  0.00  0.00    +0.227 C 
ATOM     18  O   ASN A   7      63.351  55.044   9.309  0.00  0.00    -0.286 OA
ENDBRANCH  16  17
BRANCH  16  19
ATOM     19  CB  ASN A   7      64.399  58.027   9.217  0.00  0.00    +0.112 C 
BRANCH  19  20
ATOM     20  CG  ASN A   7      65.861  58.420   9.120  0.00  0.00    +0.222 C 
ATOM     21  ND2 ASN A   7      66.198  59.563   9.720  0.00  0.00    -0.329 N 
ATOM     22 HD21 ASN A   7      65.475  60.123  10.216  0.00  0.00    +0.145 HD
ATOM     23 HD22 ASN A   7      67.183  59.894   9.692  0.00  0.00    +0.145 HD
ATOM     24  OD1 ASN A   7      66.676  57.718   8.519  0.00  0.00    -0.275 OA
ENDBRANCH  19  20
ENDBRANCH  16  19
ENDBRANCH  13  16
ENDBRANCH  11  12
BRANCH  11  25
ATOM     25  CB  LEU A   6      60.056  59.352   7.829  0.00  0.00    +0.029 C 
BRANCH  25  26
ATOM     26  CG  LEU A   6      58.541  59.562   7.844  0.00  0.00    +0.002 C 
ATOM     27  CD2 LEU A   6      58.208  60.569   8.917  0.00  0.00    +0.000 C 
ATOM     28  CD1 LEU A   6      57.995  60.013   6.478  0.00  0.00    +0.000 C 
ENDBRANCH  25  26
ENDBRANCH  11  25
ENDBRANCH   8  11
ENDBRANCH   6   7
BRANCH   6  29
ATOM     29  CB  LEU A   5      60.496  53.711   6.280  0.00  0.00    +0.029 C 
BRANCH  29  30
ATOM     30  CG  LEU A   5      60.443  52.582   7.320  0.00  0.00    +0.002 C 
ATOM     31  CD2 LEU A   5      59.039  52.324   7.849  0.00  0.00    +0.000 C 
ATOM     32  CD1 LEU A   5      61.059  51.308   6.735  0.00  0.00    +0.000 C 
ENDBRANCH  29  30
ENDBRANCH   6  29
ENDBRANCH   4   6
ENDBRANCH   1   2
BRANCH   1  34
ATOM     33  C   ILE A   3      54.366  52.894   5.009  0.00  0.00    +0.241 C 
ATOM     34  N   SER A   4      54.903  54.105   5.109  0.00  0.00    -0.295 N 
ATOM     35  H   SER A   4      54.426  54.818   5.697  0.00  0.00    +0.150 HD
ATOM     36  O   ILE A   3      54.773  52.029   4.219  0.00  0.00    -0.273 OA
BRANCH  33  37
ATOM     37  CA  ILE A   3      53.168  52.631   5.933  0.00  0.00    +0.149 C 
BRANCH  37  39
ATOM     38  C   ILE A   2      51.639  52.716   4.016  0.00  0.00    +0.241 C 
ATOM     39  N   ILE A   3      52.011  52.158   5.166  0.00  0.00    -0.297 N 
ATOM     40  H   ILE A   3      51.460  51.356   5.534  0.00  0.00    +0.150 HD
ATOM     41  O   ILE A   2      52.121  53.767   3.587  0.00  0.00    -0.273 OA
BRANCH  38  42
ATOM     42  CA  ILE A   2      50.563  51.983   3.229  0.00  0.00    +0.148 C 
BRANCH  42  45
ATOM     43  C   ASN A   1      48.444  53.029   2.571  0.00  0.00    +0.239 C 
ATOM     44  O   ASN A   1      47.753  52.113   3.025  0.00  0.00    -0.274 OA
ATOM     45  N   ILE A   2      49.772  52.996   2.540  0.00  0.00    -0.297 N 
ATOM     46  H   ILE A   2      50.272  53.729   1.997  0.00  0.00    +0.150 HD
BRANCH  43  47
ATOM     47  CA  ASN A   1      47.799  54.278   1.980  0.00  0.00    +0.154 C 
BRANCH  47  48
ATOM     48  N   ASN A   1      48.727  55.056   1.149  0.00  0.00    -0.238 NA
ATOM     49  H   ASN A   1      48.968  54.703   0.201  0.00  0.00    +0.142 HD
ENDBRANCH  47  48
BRANCH  47  50
ATOM     50  CB  ASN A   1      46.530  53.910   1.193  0.00  0.00    +0.111 C 
BRANCH  50  51
ATOM     51  CG  ASN A   1      45.744  55.127   0.743  0.00  0.00    +0.221 C 
ATOM     52  ND2 ASN A   1      45.430  56.027   1.679  0.00  0.00    -0.329 N 
ATOM     53 HD21 ASN A   1      45.718  55.873   2.666  0.00  0.00    +0.145 HD
ATOM     54 HD22 ASN A   1      44.898  56.882   1.420  0.00  0.00    +0.145 HD
ATOM     55  OD1 ASN A   1      45.428  55.261  -0.438  0.00  0.00    -0.275 OA
ENDBRANCH  50  51
ENDBRANCH  47  50
ENDBRANCH  43  47
ENDBRANCH  42  45
BRANCH  42  56
ATOM     56  CB  ILE A   2      51.280  51.034   2.235  0.00  0.00    +0.027 C 
ATOM     57  CG2 ILE A   2      52.062  49.935   2.979  0.00  0.00    +0.002 C 
BRANCH  56  58
ATOM     58  CG1 ILE A   2      50.312  50.473   1.179  0.00  0.00    +0.002 C 
ATOM     59  CD1 ILE A   2      49.320  49.505   1.714  0.00  0.00    +0.000 C 
ENDBRANCH  56  58
ENDBRANCH  42  56
ENDBRANCH  38  42
ENDBRANCH  37  39
BRANCH  37  60
ATOM     60  CB  ILE A   3      53.577  51.642   7.075  0.00  0.00    +0.027 C 
ATOM     61  CG2 ILE A   3      53.505  50.184   6.591  0.00  0.00    +0.002 C 
BRANCH  60  62
ATOM     62  CG1 ILE A   3      54.974  51.984   7.599  0.00  0.00    +0.002 C 
ATOM     63  CD1 ILE A   3      55.407  51.242   8.837  0.00  0.00    +0.000 C 
ENDBRANCH  60  62
ENDBRANCH  37  60
ENDBRANCH  33  37
ENDBRANCH   1  34
BRANCH   1  64
ATOM     64  CB  SER A   4      55.865  55.559   3.388  0.00  0.00    +0.166 C 
BRANCH  64  65
ATOM     65  OG  SER A   4      57.005  55.727   2.553  0.00  0.00    -0.380 OA
ATOM     66  H   SER A   4      57.200  54.875   2.088  0.00  0.00    +0.211 HD
ENDBRANCH  64  65
ENDBRANCH   1  64
TORSDOF 28
REMARK  Name = ../refined-set-2016/3npc/3npc_pocket.pdb
REMARK  307 active torsions:
REMARK  status: ('A' for Active; 'I' for Inactive)
REMARK    1  A    between atoms: _1  and  _3
REMARK    2  A    between atoms: _3  and  _4
REMARK    3  A    between atoms: _3  and  _6
REMARK    4  A    between atoms: _6  and  _7
REMARK    5  A    between atoms: _10  and  _12
REMARK    6  A    between atoms: _12  and  _13
REMARK    7  A    between atoms: _15  and  _17
REMARK    8  A    between atoms: _17  and  _18
REMARK    9  A    between atoms: _17  and  _20
REMARK   10  A    between atoms: _20  and  _21
REMARK   11  A    between atoms: _21  and  _22
REMARK   12  A    between atoms: _27  and  _29
REMARK   13  A    between atoms: _29  and  _30
REMARK   14  A    between atoms: _29  and  _32
REMARK   15  A    between atoms: _32  and  _33
REMARK   16  A    between atoms: _36  and  _38
REMARK   17  A    between atoms: _38  and  _39
REMARK   18  A    between atoms: _38  and  _41
REMARK   19  A    between atoms: _44  and  _46
REMARK   20  A    between atoms: _46  and  _47
REMARK   21  A    between atoms: _46  and  _49
REMARK   22  A    between atoms: _51  and  _53
REMARK   23  A    between atoms: _53  and  _54
REMARK   24  A    between atoms: _57  and  _59
REMARK   25  A    between atoms: _59  and  _60
REMARK   26  A    between atoms: _59  and  _62
REMARK   27  A    between atoms: _62  and  _63
REMARK   28  A    between atoms: _68  and  _70
REMARK   29  A    between atoms: _70  and  _71
REMARK   30  A    between atoms: _70  and  _73
REMARK   31  A    between atoms: _76  and  _78
REMARK   32  A    between atoms: _78  and  _79
REMARK   33  A    between atoms: _82  and  _84
REMARK   34  A    between atoms: _84  and  _85
REMARK   35  A    between atoms: _84  and  _87
REMARK   36  A    between atoms: _90  and  _92
REMARK   37  A    between atoms: _92  and  _93
REMARK   38  A    between atoms: _92  and  _95
REMARK   39  A    between atoms: _95  and  _96
REMARK   40  A    between atoms: _96  and  _97
REMARK   41  A    between atoms: _97  and  _98
REMARK   42  A    between atoms: _98  and  _99
REMARK   43  A    between atoms: _103  and  _105
REMARK   44  A    between atoms: _105  and  _106
REMARK   45  A    between atoms: _105  and  _108
REMARK   46  A    between atoms: _108  and  _109
REMARK   47  A    between atoms: _109  and  _110
REMARK   48  A    between atoms: _110  and  _111
REMARK   49  A    between atoms: _111  and  _112
REMARK   50  A    between atoms: _116  and  _118
REMARK   51  A    between atoms: _118  and  _119
REMARK   52  A    between atoms: _118  and  _121
REMARK   53  A    between atoms: _121  and  _122
REMARK   54  A    between atoms: _125  and  _127
REMARK   55  A    between atoms: _127  and  _128
REMARK   56  A    between atoms: _127  and  _130
REMARK   57  A    between atoms: _130  and  _131
REMARK   58  A    between atoms: _134  and  _136
REMARK   59  A    between atoms: _136  and  _137
REMARK   60  A    between atoms: _136  and  _139
REMARK   61  A    between atoms: _139  and  _140
REMARK   62  A    between atoms: _145  and  _147
REMARK   63  A    between atoms: _147  and  _148
REMARK   64  A    between atoms: _147  and  _150
REMARK   65  A    between atoms: _150  and  _151
REMARK   66  A    between atoms: _151  and  _152
REMARK   67  A    between atoms: _152  and  _153
REMARK   68  A    between atoms: _153  and  _154
REMARK   69  A    between atoms: _158  and  _160
REMARK   70  A    between atoms: _160  and  _161
REMARK   71  A    between atoms: _160  and  _163
REMARK   72  A    between atoms: _163  and  _164
REMARK   73  A    between atoms: _164  and  _165
REMARK   74  A    between atoms: _165  and  _166
REMARK   75  A    between atoms: _175  and  _177
REMARK   76  A    between atoms: _177  and  _178
REMARK   77  A    between atoms: _181  and  _183
REMARK   78  A    between atoms: _183  and  _184
REMARK   79  A    between atoms: _183  and  _186
REMARK   80  A    between atoms: _186  and  _187
REMARK   81  A    between atoms: _192  and  _193
REMARK   82  A    between atoms: _195  and  _197
REMARK   83  A    between atoms: _197  and  _198
REMARK   84  A    between atoms: _197  and  _200
REMARK   85  A    between atoms: _200  and  _201
REMARK   86  A    between atoms: _201  and  _202
REMARK   87  A    between atoms: _202  and  _203
REMARK   88  A    between atoms: _212  and  _214
REMARK   89  A    between atoms: _214  and  _215
REMARK   90  A    between atoms: _214  and  _217
REMARK   91  A    between atoms: _217  and  _218
REMARK   92  A    between atoms: _218  and  _219
REMARK   93  A    between atoms: _222  and  _224
REMARK   94  A    between atoms: _224  and  _225
REMARK   95  A    between atoms: _224  and  _227
REMARK   96  A    between atoms: _227  and  _228
REMARK   97  A    between atoms: _231  and  _233
REMARK   98  A    between atoms: _233  and  _234
REMARK   99  A    between atoms: _233  and  _236
REMARK  100  A    between atoms: _239  and  _241
REMARK  101  A    between atoms: _241  and  _242
REMARK  102  A    between atoms: _241  and  _244
REMARK  103  A    between atoms: _244  and  _245
REMARK  104  A    between atoms: _248  and  _250
REMARK  105  A    between atoms: _250  and  _251
REMARK  106  A    between atoms: _250  and  _253
REMARK  107  A    between atoms: _253  and  _254
REMARK  108  A    between atoms: _257  and  _259
REMARK  109  A    between atoms: _259  and  _260
REMARK  110  A    between atoms: _259  and  _262
REMARK  111  A    between atoms: _262  and  _263
REMARK  112  A    between atoms: _263  and  _264
REMARK  113  A    between atoms: _264  and  _265
REMARK  114  A    between atoms: _265  and  _266
REMARK  115  A    between atoms: _270  and  _272
REMARK  116  A    between atoms: _272  and  _273
REMARK  117  A    between atoms: _272  and  _275
REMARK  118  A    between atoms: _277  and  _279
REMARK  119  A    between atoms: _279  and  _280
REMARK  120  A    between atoms: _279  and  _282
REMARK  121  A    between atoms: _285  and  _287
REMARK  122  A    between atoms: _287  and  _288
REMARK  123  A    between atoms: _287  and  _290
REMARK  124  A    between atoms: _290  and  _291
REMARK  125  A    between atoms: _296  and  _298
REMARK  126  A    between atoms: _298  and  _299
REMARK  127  A    between atoms: _298  and  _301
REMARK  128  A    between atoms: _301  and  _302
REMARK  129  A    between atoms: _305  and  _307
REMARK  130  A    between atoms: _307  and  _308
REMARK  131  A    between atoms: _307  and  _310
REMARK  132  A    between atoms: _310  and  _311
REMARK  133  A    between atoms: _314  and  _316
REMARK  134  A    between atoms: _316  and  _317
REMARK  135  A    between atoms: _316  and  _319
REMARK  136  A    between atoms: _319  and  _320
REMARK  137  A    between atoms: _322  and  _324
REMARK  138  A    between atoms: _324  and  _325
REMARK  139  A    between atoms: _324  and  _327
REMARK  140  A    between atoms: _327  and  _328
REMARK  141  A    between atoms: _331  and  _333
REMARK  142  A    between atoms: _333  and  _334
REMARK  143  A    between atoms: _333  and  _336
REMARK  144  A    between atoms: _336  and  _337
REMARK  145  A    between atoms: _340  and  _342
REMARK  146  A    between atoms: _342  and  _343
REMARK  147  A    between atoms: _342  and  _345
REMARK  148  A    between atoms: _345  and  _346
REMARK  149  A    between atoms: _351  and  _353
REMARK  150  A    between atoms: _353  and  _354
REMARK  151  A    between atoms: _353  and  _356
REMARK  152  A    between atoms: _356  and  _357
REMARK  153  A    between atoms: _362  and  _363
REMARK  154  A    between atoms: _365  and  _367
REMARK  155  A    between atoms: _367  and  _368
REMARK  156  A    between atoms: _367  and  _370
REMARK  157  A    between atoms: _370  and  _371
REMARK  158  A    between atoms: _374  and  _376
REMARK  159  A    between atoms: _376  and  _377
REMARK  160  A    between atoms: _376  and  _379
REMARK  161  A    between atoms: _382  and  _384
REMARK  162  A    between atoms: _384  and  _385
REMARK  163  A    between atoms: _384  and  _387
REMARK  164  A    between atoms: _387  and  _388
REMARK  165  A    between atoms: _388  and  _389
REMARK  166  A    between atoms: _391  and  _393
REMARK  167  A    between atoms: _393  and  _394
REMARK  168  A    between atoms: _393  and  _396
REMARK  169  A    between atoms: _396  and  _397
REMARK  170  A    between atoms: _397  and  _398
REMARK  171  A    between atoms: _401  and  _403
REMARK  172  A    between atoms: _403  and  _404
REMARK  173  A    between atoms: _403  and  _406
REMARK  174  A    between atoms: _406  and  _407
REMARK  175  A    between atoms: _410  and  _412
REMARK  176  A    between atoms: _412  and  _413
REMARK  177  A    between atoms: _412  and  _415
REMARK  178  A    between atoms: _415  and  _416
REMARK  179  A    between atoms: _416  and  _417
REMARK  180  A    between atoms: _419  and  _421
REMARK  181  A    between atoms: _421  and  _422
REMARK  182  A    between atoms: _421  and  _424
REMARK  183  A    between atoms: _424  and  _425
REMARK  184  A    between atoms: _428  and  _430
REMARK  185  A    between atoms: _430  and  _431
REMARK  186  A    between atoms: _434  and  _436
REMARK  187  A    between atoms: _436  and  _437
REMARK  188  A    between atoms: _436  and  _439
REMARK  189  A    between atoms: _439  and  _440
REMARK  190  A    between atoms: _445  and  _447
REMARK  191  A    between atoms: _447  and  _448
REMARK  192  A    between atoms: _447  and  _450
REMARK  193  A    between atoms: _450  and  _451
REMARK  194  A    between atoms: _451  and  _452
REMARK  195  A    between atoms: _457  and  _459
REMARK  196  A    between atoms: _459  and  _460
REMARK  197  A    between atoms: _462  and  _464
REMARK  198  A    between atoms: _464  and  _465
REMARK  199  A    between atoms: _464  and  _467
REMARK  200  A    between atoms: _467  and  _468
REMARK  201  A    between atoms: _471  and  _473
REMARK  202  A    between atoms: _473  and  _474
REMARK  203  A    between atoms: _477  and  _479
REMARK  204  A    between atoms: _479  and  _480
REMARK  205  A    between atoms: _479  and  _482
REMARK  206  A    between atoms: _482  and  _483
REMARK  207  A    between atoms: _486  and  _488
REMARK  208  A    between atoms: _488  and  _489
REMARK  209  A    between atoms: _488  and  _491
REMARK  210  A    between atoms: _491  and  _492
REMARK  211  A    between atoms: _495  and  _497
REMARK  212  A    between atoms: _497  and  _498
REMARK  213  A    between atoms: _497  and  _500
REMARK  214  A    between atoms: _500  and  _501
REMARK  215  A    between atoms: _506  and  _508
REMARK  216  A    between atoms: _508  and  _509
REMARK  217  A    between atoms: _508  and  _511
REMARK  218  A    between atoms: _511  and  _512
REMARK  219  A    between atoms: _512  and  _513
REMARK  220  A    between atoms: _513  and  _514
REMARK  221  A    between atoms: _523  and  _525
REMARK  222  A    between atoms: _525  and  _526
REMARK  223  A    between atoms: _525  and  _528
REMARK  224  A    between atoms: _528  and  _529
REMARK  225  A    between atoms: _532  and  _534
REMARK  226  A    between atoms: _534  and  _535
REMARK  227  A    between atoms: _534  and  _537
REMARK  228  A    between atoms: _537  and  _538
REMARK  229  A    between atoms: _541  and  _543
REMARK  230  A    between atoms: _543  and  _544
REMARK  231  A    between atoms: _543  and  _546
REMARK  232  A    between atoms: _546  and  _547
REMARK  233  A    between atoms: _549  and  _551
REMARK  234  A    between atoms: _551  and  _552
REMARK  235  A    between atoms: _551  and  _554
REMARK  236  A    between atoms: _554  and  _555
REMARK  237  A    between atoms: _560  and  _562
REMARK  238  A    between atoms: _562  and  _563
REMARK  239  A    between atoms: _562  and  _565
REMARK  240  A    between atoms: _565  and  _566
REMARK  241  A    between atoms: _569  and  _571
REMARK  242  A    between atoms: _571  and  _572
REMARK  243  A    between atoms: _571  and  _574
REMARK  244  A    between atoms: _577  and  _579
REMARK  245  A    between atoms: _579  and  _580
REMARK  246  A    between atoms: _579  and  _582
REMARK  247  A    between atoms: _585  and  _587
REMARK  248  A    between atoms: _587  and  _588
REMARK  249  A    between atoms: _587  and  _590
REMARK  250  A    between atoms: _590  and  _591
REMARK  251  A    between atoms: _591  and  _592
REMARK  252  A    between atoms: _592  and  _593
REMARK  253  A    between atoms: _593  and  _594
REMARK  254  A    between atoms: _598  and  _600
REMARK  255  A    between atoms: _600  and  _601
REMARK  256  A    between atoms: _600  and  _603
REMARK  257  A    between atoms: _603  and  _604
REMARK  258  A    between atoms: _604  and  _605
REMARK  259  A    between atoms: _605  and  _606
REMARK  260  A    between atoms: _606  and  _607
REMARK  261  A    between atoms: _611  and  _613
REMARK  262  A    between atoms: _613  and  _614
REMARK  263  A    between atoms: _613  and  _616
REMARK  264  A    between atoms: _616  and  _617
REMARK  265  A    between atoms: _620  and  _622
REMARK  266  A    between atoms: _622  and  _623
REMARK  267  A    between atoms: _622  and  _625
REMARK  268  A    between atoms: _625  and  _626
REMARK  269  A    between atoms: _629  and  _631
REMARK  270  A    between atoms: _631  and  _632
REMARK  271  A    between atoms: _631  and  _634
REMARK  272  A    between atoms: _634  and  _635
REMARK  273  A    between atoms: _638  and  _640
REMARK  274  A    between atoms: _640  and  _641
REMARK  275  A    between atoms: _640  and  _643
REMARK  276  A    between atoms: _643  and  _644
REMARK  277  A    between atoms: _650  and  _652
REMARK  278  A    between atoms: _652  and  _653
REMARK  279  A    between atoms: _655  and  _657
REMARK  280  A    between atoms: _657  and  _658
REMARK  281  A    between atoms: _657  and  _660
REMARK  282  A    between atoms: _660  and  _661
REMARK  283  A    between atoms: _664  and  _666
REMARK  284  A    between atoms: _666  and  _667
REMARK  285  A    between atoms: _670  and  _672
REMARK  286  A    between atoms: _672  and  _673
REMARK  287  A    between atoms: _672  and  _675
REMARK  288  A    between atoms: _675  and  _676
REMARK  289  A    between atoms: _676  and  _677
REMARK  290  A    between atoms: _679  and  _681
REMARK  291  A    between atoms: _681  and  _682
REMARK  292  A    between atoms: _681  and  _684
REMARK  293  A    between atoms: _684  and  _685
REMARK  294  A    between atoms: _685  and  _686
REMARK  295  A    between atoms: _688  and  _690
REMARK  296  A    between atoms: _690  and  _691
REMARK  297  A    between atoms: _690  and  _693
REMARK  298  A    between atoms: _693  and  _694
REMARK  299  A    between atoms: _697  and  _699
REMARK  300  A    between atoms: _699  and  _700
REMARK  301  A    between atoms: _699  and  _702
REMARK  302  A    between atoms: _702  and  _703
REMARK  303  A    between atoms: _706  and  _708
REMARK  304  A    between atoms: _708  and  _709
REMARK  305  A    between atoms: _708  and  _711
REMARK  306  A    between atoms: _711  and  _712
REMARK  307  A    between atoms: _712  and  _713
REMARK                            x       y       z     vdW  Elec       q    Type
REMARK                         _______ _______ _______ _____ _____    ______ ____
ROOT
ATOM      1  CA  GLU A   5      54.650  59.380  10.531  0.00  0.00    +0.149 C 
ENDROOT
BRANCH   1   4
ATOM      2  C   MET A   4      56.408  57.701  10.874  0.00  0.00    +0.241 C 
ATOM      3  O   MET A   4      56.687  58.099  11.999  0.00  0.00    -0.273 OA
ATOM      4  N   GLU A   5      55.495  58.277  10.098  0.00  0.00    -0.297 N 
ATOM      5  H   GLU A   5      55.378  57.920   9.128  0.00  0.00    +0.150 HD
BRANCH   2   6
ATOM      6  CA  MET A   4      57.136  56.502  10.281  0.00  0.00    +0.149 C 
BRANCH   6   8
ATOM      7  C   VAL A   3      59.499  55.916  10.620  0.00  0.00    +0.241 C 
ATOM      8  N   MET A   4      58.294  56.192  11.119  0.00  0.00    -0.297 N 
ATOM      9  H   MET A   4      58.172  56.187  12.152  0.00  0.00    +0.150 HD
ATOM     10  O   VAL A   3      59.709  55.713   9.424  0.00  0.00    -0.273 OA
BRANCH   7  11
ATOM     11  CA  VAL A   3      60.632  55.812  11.636  0.00  0.00    +0.149 C 
BRANCH  11  14
ATOM     12  C   LEU A   2      61.539  53.639  12.220  0.00  0.00    +0.241 C 
ATOM     13  O   LEU A   2      60.941  53.629  13.290  0.00  0.00    -0.273 OA
ATOM     14  N   VAL A   3      61.444  54.637  11.349  0.00  0.00    -0.297 N 
ATOM     15  H   VAL A   3      61.958  54.579  10.447  0.00  0.00    +0.150 HD
BRANCH  12  16
ATOM     16  CA  LEU A   2      62.438  52.484  11.838  0.00  0.00    +0.149 C 
BRANCH  16  18
ATOM     17  C   TYR A   1      64.627  52.242  12.929  0.00  0.00    +0.239 C 
ATOM     18  N   LEU A   2      63.301  52.142  12.977  0.00  0.00    -0.297 N 
ATOM     19  H   LEU A   2      62.857  51.808  13.856  0.00  0.00    +0.150 HD
ATOM     20  O   TYR A   1      65.232  52.605  11.924  0.00  0.00    -0.274 OA
BRANCH  17  21
ATOM     21  CA  TYR A   1      65.390  51.865  14.200  0.00  0.00    +0.149 C 
BRANCH  21  22
ATOM     22  N   TYR A   1      66.481  50.945  13.902  0.00  0.00    -0.238 NA
ATOM     23  H   TYR A   1      67.223  51.242  13.237  0.00  0.00    +0.142 HD
ENDBRANCH  21  22
BRANCH  21  24
ATOM     24  CB  TYR A   1      65.924  53.125  14.890  0.00  0.00    +0.053 C 
BRANCH  24  25
ATOM     25  CG  TYR A   1      66.519  52.891  16.266  0.00  0.00    -0.020 A 
ATOM     26  CD2 TYR A   1      65.800  53.203  17.420  0.00  0.00    -0.001 A 
ATOM     27  CE2 TYR A   1      66.344  53.004  18.684  0.00  0.00    +0.036 A 
ATOM     28  CZ  TYR A   1      67.617  52.480  18.795  0.00  0.00    +0.134 A 
ATOM     29  CE1 TYR A   1      68.346  52.165  17.657  0.00  0.00    +0.036 A 
ATOM     30  CD1 TYR A   1      67.799  52.377  16.410  0.00  0.00    -0.001 A 
BRANCH  28  31
ATOM     31  OH  TYR A   1      68.176  52.269  20.040  0.00  0.00    -0.506 OA
ATOM     32  HH  TYR A   1      69.085  51.892  19.933  0.00  0.00    +0.292 HD
ENDBRANCH  28  31
ENDBRANCH  24  25
ENDBRANCH  21  24
ENDBRANCH  17  21
ENDBRANCH  16  18
BRANCH  16  33
ATOM     33  CB  LEU A   2      61.570  51.295  11.422  0.00  0.00    +0.029 C 
BRANCH  33  34
ATOM     34  CG  LEU A   2      62.224  49.915  11.322  0.00  0.00    +0.002 C 
ATOM     35  CD2 LEU A   2      61.175  48.870  10.987  0.00  0.00    +0.000 C 
ATOM     36  CD1 LEU A   2      63.335  49.914  10.276  0.00  0.00    +0.000 C 
ENDBRANCH  33  34
ENDBRANCH  16  33
ENDBRANCH  12  16
ENDBRANCH  11  14
BRANCH  11  37
ATOM     37  CB  VAL A   3      61.481  57.130  11.675  0.00  0.00    +0.027 C 
ATOM     38  CG2 VAL A   3      62.776  56.941  12.471  0.00  0.00    +0.002 C 
ATOM     39  CG1 VAL A   3      60.671  58.285  12.262  0.00  0.00    +0.002 C 
ENDBRANCH  11  37
ENDBRANCH   7  11
ENDBRANCH   6   8
BRANCH   6  40
ATOM     40  CB  MET A   4      56.189  55.298  10.140  0.00  0.00    +0.041 C 
BRANCH  40  41
ATOM     41  CG  MET A   4      55.247  55.072  11.318  0.00  0.00    +0.060 C 
BRANCH  41  42
ATOM     42  SD  MET A   4      53.852  54.003  10.944  0.00  0.00    -0.139 S 
ATOM     43  CE  MET A   4      52.902  55.002   9.785  0.00  0.00    +0.069 C 
ENDBRANCH  41  42
ENDBRANCH  40  41
ENDBRANCH   6  40
ENDBRANCH   2   6
ENDBRANCH   1   4
BRANCH   1  44
ATOM     44  C   GLU A   5      53.682  58.920  11.622  0.00  0.00    +0.241 C 
ATOM     45  N   LEU A   6      53.550  59.711  12.685  0.00  0.00    -0.297 N 
ATOM     46  H   LEU A   6      54.168  60.542  12.783  0.00  0.00    +0.150 HD
ATOM     47  O   GLU A   5      53.081  57.858  11.506  0.00  0.00    -0.273 OA
BRANCH  45  48
ATOM     48  CA  LEU A   6      52.552  59.433  13.717  0.00  0.00    +0.149 C 
BRANCH  48  49
ATOM     49  C   LEU A   6      51.156  59.835  13.239  0.00  0.00    +0.241 C 
ATOM     50  N   MET A   7      50.272  58.848  13.178  0.00  0.00    -0.297 N 
ATOM     51  H   MET A   7      50.588  57.880  13.389  0.00  0.00    +0.150 HD
ATOM     52  O   LEU A   6      50.892  61.001  12.924  0.00  0.00    -0.273 OA
BRANCH  50  53
ATOM     53  CA  MET A   7      48.883  59.067  12.829  0.00  0.00    +0.149 C 
BRANCH  53  54
ATOM     54  C   MET A   7      48.106  59.412  14.095  0.00  0.00    +0.241 C 
ATOM     55  O   MET A   7      48.670  59.400  15.187  0.00  0.00    -0.273 OA
ATOM     56  N   ASP A   8      46.822  59.729  13.959  0.00  0.00    -0.297 N 
ATOM     57  H   ASP A   8      46.363  59.618  13.032  0.00  0.00    +0.150 HD
BRANCH  56  58
ATOM     58  CA  ASP A   8      46.042  60.232  15.093  0.00  0.00    +0.160 C 
BRANCH  58  59
ATOM     59  C   ASP A   8      45.308  59.133  15.878  0.00  0.00    +0.241 C 
ATOM     60  O   ASP A   8      45.023  59.295  17.072  0.00  0.00    -0.273 OA
ATOM     61  N   ALA A   9      45.016  58.017  15.208  0.00  0.00    -0.297 N 
ATOM     62  H   ALA A   9      45.400  57.894  14.249  0.00  0.00    +0.150 HD
BRANCH  61  63
ATOM     63  CA  ALA A   9      44.181  56.965  15.768  0.00  0.00    +0.149 C 
ATOM     64  CB  ALA A   9      42.738  57.476  15.938  0.00  0.00    +0.031 C 
BRANCH  63  65
ATOM     65  C   ALA A   9      44.198  55.726  14.879  0.00  0.00    +0.241 C 
ATOM     66  N   ASN A  10      43.742  54.603  15.417  0.00  0.00    -0.298 N 
ATOM     67  H   ASN A  10      43.514  54.570  16.431  0.00  0.00    +0.150 HD
ATOM     68  O   ALA A   9      44.625  55.782  13.723  0.00  0.00    -0.273 OA
BRANCH  66  69
ATOM     69  CA  ASN A  10      43.559  53.420  14.598  0.00  0.00    +0.146 C 
BRANCH  69  70
ATOM     70  C   ASN A  10      42.070  53.164  14.386  0.00  0.00    +0.227 C 
ATOM     71  O   ASN A  10      41.235  53.783  15.054  0.00  0.00    -0.286 OA
ENDBRANCH  69  70
BRANCH  69  72
ATOM     72  CB  ASN A  10      44.338  52.210  15.148  0.00  0.00    +0.112 C 
BRANCH  72  73
ATOM     73  CG  ASN A  10      43.720  51.608  16.406  0.00  0.00    +0.222 C 
ATOM     74  ND2 ASN A  10      44.535  50.901  17.178  0.00  0.00    -0.329 N 
ATOM     75 HD21 ASN A  10      44.169  50.438  18.034  0.00  0.00    +0.145 HD
ATOM     76 HD22 ASN A  10      45.540  50.810  16.927  0.00  0.00    +0.145 HD
ATOM     77  OD1 ASN A  10      42.527  51.745  16.660  0.00  0.00    -0.275 OA
ENDBRANCH  72  73
ENDBRANCH  69  72
ENDBRANCH  66  69
ENDBRANCH  63  65
ENDBRANCH  61  63
ENDBRANCH  58  59
BRANCH  58  78
ATOM     78  CB  ASP A   8      45.054  61.300  14.613  0.00  0.00    +0.143 C 
BRANCH  78  79
ATOM     79  CG  ASP A   8      45.750  62.498  13.966  0.00  0.00    +0.367 C 
ATOM     80  OD2 ASP A   8      46.953  62.751  14.248  0.00  0.00    -0.246 OA
ATOM     81  OD1 ASP A   8      45.091  63.184  13.158  0.00  0.00    -0.246 OA
ENDBRANCH  78  79
ENDBRANCH  58  78
ENDBRANCH  56  58
ENDBRANCH  53  54
BRANCH  53  82
ATOM     82  CB  MET A   7      48.339  57.821  12.138  0.00  0.00    +0.041 C 
BRANCH  82  83
ATOM     83  CG  MET A   7      49.228  57.358  10.991  0.00  0.00    +0.060 C 
BRANCH  83  84
ATOM     84  SD  MET A   7      49.157  58.440   9.563  0.00  0.00    -0.139 S 
ATOM     85  CE  MET A   7      47.649  57.863   8.756  0.00  0.00    +0.069 C 
ENDBRANCH  83  84
ENDBRANCH  82  83
ENDBRANCH  53  82
ENDBRANCH  50  53
ENDBRANCH  48  49
BRANCH  48  86
ATOM     86  CB  LEU A   6      52.888  60.131  15.037  0.00  0.00    +0.029 C 
BRANCH  86  87
ATOM     87  CG  LEU A   6      52.219  59.613  16.320  0.00  0.00    +0.002 C 
ATOM     88  CD2 LEU A   6      52.378  60.613  17.459  0.00  0.00    +0.000 C 
ATOM     89  CD1 LEU A   6      52.774  58.250  16.741  0.00  0.00    +0.000 C 
ENDBRANCH  86  87
ENDBRANCH  48  86
ENDBRANCH  45  48
ENDBRANCH   1  44
BRANCH   1  90
ATOM     90  CB  GLU A   5      53.873  59.910   9.325  0.00  0.00    +0.041 C 
BRANCH  90  91
ATOM     91  CG  GLU A   5      53.038  61.166   9.575  0.00  0.00    +0.116 C 
BRANCH  91  92
ATOM     92  CD  GLU A   5      52.257  61.628   8.336  0.00  0.00    +0.365 C 
ATOM     93  OE2 GLU A   5      51.523  62.637   8.441  0.00  0.00    -0.246 OA
ATOM     94  OE1 GLU A   5      52.368  61.001   7.261  0.00  0.00    -0.246 OA
ENDBRANCH  91  92
ENDBRANCH  90  91
ENDBRANCH   1  90
TORSDOF 41
REMARK  Name = ../refined-set-2016/3npc/3npc_pocket.pdb
REMARK  307 active torsions:
REMARK  status: ('A' for Active; 'I' for Inactive)
REMARK    1  A    between atoms: _1  and  _3
REMARK    2  A    between atoms: _3  and  _4
REMARK    3  A    between atoms: _3  and  _6
REMARK    4  A    between atoms: _6  and  _7
REMARK    5  A    between atoms: _10  and  _12
REMARK    6  A    between atoms: _12  and  _13
REMARK    7  A    between atoms: _15  and  _17
REMARK    8  A    between atoms: _17  and  _18
REMARK    9  A    between atoms: _17  and  _20
REMARK   10  A    between atoms: _20  and  _21
REMARK   11  A    between atoms: _21  and  _22
REMARK   12  A    between atoms: _27  and  _29
REMARK   13  A    between atoms: _29  and  _30
REMARK   14  A    between atoms: _29  and  _32
REMARK   15  A    between atoms: _32  and  _33
REMARK   16  A    between atoms: _36  and  _38
REMARK   17  A    between atoms: _38  and  _39
REMARK   18  A    between atoms: _38  and  _41
REMARK   19  A    between atoms: _44  and  _46
REMARK   20  A    between atoms: _46  and  _47
REMARK   21  A    between atoms: _46  and  _49
REMARK   22  A    between atoms: _51  and  _53
REMARK   23  A    between atoms: _53  and  _54
REMARK   24  A    between atoms: _57  and  _59
REMARK   25  A    between atoms: _59  and  _60
REMARK   26  A    between atoms: _59  and  _62
REMARK   27  A    between atoms: _62  and  _63
REMARK   28  A    between atoms: _68  and  _70
REMARK   29  A    between atoms: _70  and  _71
REMARK   30  A    between atoms: _70  and  _73
REMARK   31  A    between atoms: _76  and  _78
REMARK   32  A    between atoms: _78  and  _79
REMARK   33  A    between atoms: _82  and  _84
REMARK   34  A    between atoms: _84  and  _85
REMARK   35  A    between atoms: _84  and  _87
REMARK   36  A    between atoms: _90  and  _92
REMARK   37  A    between atoms: _92  and  _93
REMARK   38  A    between atoms: _92  and  _95
REMARK   39  A    between atoms: _95  and  _96
REMARK   40  A    between atoms: _96  and  _97
REMARK   41  A    between atoms: _97  and  _98
REMARK   42  A    between atoms: _98  and  _99
REMARK   43  A    between atoms: _103  and  _105
REMARK   44  A    between atoms: _105  and  _106
REMARK   45  A    between atoms: _105  and  _108
REMARK   46  A    between atoms: _108  and  _109
REMARK   47  A    between atoms: _109  and  _110
REMARK   48  A    between atoms: _110  and  _111
REMARK   49  A    between atoms: _111  and  _112
REMARK   50  A    between atoms: _116  and  _118
REMARK   51  A    between atoms: _118  and  _119
REMARK   52  A    between atoms: _118  and  _121
REMARK   53  A    between atoms: _121  and  _122
REMARK   54  A    between atoms: _125  and  _127
REMARK   55  A    between atoms: _127  and  _128
REMARK   56  A    between atoms: _127  and  _130
REMARK   57  A    between atoms: _130  and  _131
REMARK   58  A    between atoms: _134  and  _136
REMARK   59  A    between atoms: _136  and  _137
REMARK   60  A    between atoms: _136  and  _139
REMARK   61  A    between atoms: _139  and  _140
REMARK   62  A    between atoms: _145  and  _147
REMARK   63  A    between atoms: _147  and  _148
REMARK   64  A    between atoms: _147  and  _150
REMARK   65  A    between atoms: _150  and  _151
REMARK   66  A    between atoms: _151  and  _152
REMARK   67  A    between atoms: _152  and  _153
REMARK   68  A    between atoms: _153  and  _154
REMARK   69  A    between atoms: _158  and  _160
REMARK   70  A    between atoms: _160  and  _161
REMARK   71  A    between atoms: _160  and  _163
REMARK   72  A    between atoms: _163  and  _164
REMARK   73  A    between atoms: _164  and  _165
REMARK   74  A    between atoms: _165  and  _166
REMARK   75  A    between atoms: _175  and  _177
REMARK   76  A    between atoms: _177  and  _178
REMARK   77  A    between atoms: _181  and  _183
REMARK   78  A    between atoms: _183  and  _184
REMARK   79  A    between atoms: _183  and  _186
REMARK   80  A    between atoms: _186  and  _187
REMARK   81  A    between atoms: _192  and  _193
REMARK   82  A    between atoms: _195  and  _197
REMARK   83  A    between atoms: _197  and  _198
REMARK   84  A    between atoms: _197  and  _200
REMARK   85  A    between atoms: _200  and  _201
REMARK   86  A    between atoms: _201  and  _202
REMARK   87  A    between atoms: _202  and  _203
REMARK   88  A    between atoms: _212  and  _214
REMARK   89  A    between atoms: _214  and  _215
REMARK   90  A    between atoms: _214  and  _217
REMARK   91  A    between atoms: _217  and  _218
REMARK   92  A    between atoms: _218  and  _219
REMARK   93  A    between atoms: _222  and  _224
REMARK   94  A    between atoms: _224  and  _225
REMARK   95  A    between atoms: _224  and  _227
REMARK   96  A    between atoms: _227  and  _228
REMARK   97  A    between atoms: _231  and  _233
REMARK   98  A    between atoms: _233  and  _234
REMARK   99  A    between atoms: _233  and  _236
REMARK  100  A    between atoms: _239  and  _241
REMARK  101  A    between atoms: _241  and  _242
REMARK  102  A    between atoms: _241  and  _244
REMARK  103  A    between atoms: _244  and  _245
REMARK  104  A    between atoms: _248  and  _250
REMARK  105  A    between atoms: _250  and  _251
REMARK  106  A    between atoms: _250  and  _253
REMARK  107  A    between atoms: _253  and  _254
REMARK  108  A    between atoms: _257  and  _259
REMARK  109  A    between atoms: _259  and  _260
REMARK  110  A    between atoms: _259  and  _262
REMARK  111  A    between atoms: _262  and  _263
REMARK  112  A    between atoms: _263  and  _264
REMARK  113  A    between atoms: _264  and  _265
REMARK  114  A    between atoms: _265  and  _266
REMARK  115  A    between atoms: _270  and  _272
REMARK  116  A    between atoms: _272  and  _273
REMARK  117  A    between atoms: _272  and  _275
REMARK  118  A    between atoms: _277  and  _279
REMARK  119  A    between atoms: _279  and  _280
REMARK  120  A    between atoms: _279  and  _282
REMARK  121  A    between atoms: _285  and  _287
REMARK  122  A    between atoms: _287  and  _288
REMARK  123  A    between atoms: _287  and  _290
REMARK  124  A    between atoms: _290  and  _291
REMARK  125  A    between atoms: _296  and  _298
REMARK  126  A    between atoms: _298  and  _299
REMARK  127  A    between atoms: _298  and  _301
REMARK  128  A    between atoms: _301  and  _302
REMARK  129  A    between atoms: _305  and  _307
REMARK  130  A    between atoms: _307  and  _308
REMARK  131  A    between atoms: _307  and  _310
REMARK  132  A    between atoms: _310  and  _311
REMARK  133  A    between atoms: _314  and  _316
REMARK  134  A    between atoms: _316  and  _317
REMARK  135  A    between atoms: _316  and  _319
REMARK  136  A    between atoms: _319  and  _320
REMARK  137  A    between atoms: _322  and  _324
REMARK  138  A    between atoms: _324  and  _325
REMARK  139  A    between atoms: _324  and  _327
REMARK  140  A    between atoms: _327  and  _328
REMARK  141  A    between atoms: _331  and  _333
REMARK  142  A    between atoms: _333  and  _334
REMARK  143  A    between atoms: _333  and  _336
REMARK  144  A    between atoms: _336  and  _337
REMARK  145  A    between atoms: _340  and  _342
REMARK  146  A    between atoms: _342  and  _343
REMARK  147  A    between atoms: _342  and  _345
REMARK  148  A    between atoms: _345  and  _346
REMARK  149  A    between atoms: _351  and  _353
REMARK  150  A    between atoms: _353  and  _354
REMARK  151  A    between atoms: _353  and  _356
REMARK  152  A    between atoms: _356  and  _357
REMARK  153  A    between atoms: _362  and  _363
REMARK  154  A    between atoms: _365  and  _367
REMARK  155  A    between atoms: _367  and  _368
REMARK  156  A    between atoms: _367  and  _370
REMARK  157  A    between atoms: _370  and  _371
REMARK  158  A    between atoms: _374  and  _376
REMARK  159  A    between atoms: _376  and  _377
REMARK  160  A    between atoms: _376  and  _379
REMARK  161  A    between atoms: _382  and  _384
REMARK  162  A    between atoms: _384  and  _385
REMARK  163  A    between atoms: _384  and  _387
REMARK  164  A    between atoms: _387  and  _388
REMARK  165  A    between atoms: _388  and  _389
REMARK  166  A    between atoms: _391  and  _393
REMARK  167  A    between atoms: _393  and  _394
REMARK  168  A    between atoms: _393  and  _396
REMARK  169  A    between atoms: _396  and  _397
REMARK  170  A    between atoms: _397  and  _398
REMARK  171  A    between atoms: _401  and  _403
REMARK  172  A    between atoms: _403  and  _404
REMARK  173  A    between atoms: _403  and  _406
REMARK  174  A    between atoms: _406  and  _407
REMARK  175  A    between atoms: _410  and  _412
REMARK  176  A    between atoms: _412  and  _413
REMARK  177  A    between atoms: _412  and  _415
REMARK  178  A    between atoms: _415  and  _416
REMARK  179  A    between atoms: _416  and  _417
REMARK  180  A    between atoms: _419  and  _421
REMARK  181  A    between atoms: _421  and  _422
REMARK  182  A    between atoms: _421  and  _424
REMARK  183  A    between atoms: _424  and  _425
REMARK  184  A    between atoms: _428  and  _430
REMARK  185  A    between atoms: _430  and  _431
REMARK  186  A    between atoms: _434  and  _436
REMARK  187  A    between atoms: _436  and  _437
REMARK  188  A    between atoms: _436  and  _439
REMARK  189  A    between atoms: _439  and  _440
REMARK  190  A    between atoms: _445  and  _447
REMARK  191  A    between atoms: _447  and  _448
REMARK  192  A    between atoms: _447  and  _450
REMARK  193  A    between atoms: _450  and  _451
REMARK  194  A    between atoms: _451  and  _452
REMARK  195  A    between atoms: _457  and  _459
REMARK  196  A    between atoms: _459  and  _460
REMARK  197  A    between atoms: _462  and  _464
REMARK  198  A    between atoms: _464  and  _465
REMARK  199  A    between atoms: _464  and  _467
REMARK  200  A    between atoms: _467  and  _468
REMARK  201  A    between atoms: _471  and  _473
REMARK  202  A    between atoms: _473  and  _474
REMARK  203  A    between atoms: _477  and  _479
REMARK  204  A    between atoms: _479  and  _480
REMARK  205  A    between atoms: _479  and  _482
REMARK  206  A    between atoms: _482  and  _483
REMARK  207  A    between atoms: _486  and  _488
REMARK  208  A    between atoms: _488  and  _489
REMARK  209  A    between atoms: _488  and  _491
REMARK  210  A    between atoms: _491  and  _492
REMARK  211  A    between atoms: _495  and  _497
REMARK  212  A    between atoms: _497  and  _498
REMARK  213  A    between atoms: _497  and  _500
REMARK  214  A    between atoms: _500  and  _501
REMARK  215  A    between atoms: _506  and  _508
REMARK  216  A    between atoms: _508  and  _509
REMARK  217  A    between atoms: _508  and  _511
REMARK  218  A    between atoms: _511  and  _512
REMARK  219  A    between atoms: _512  and  _513
REMARK  220  A    between atoms: _513  and  _514
REMARK  221  A    between atoms: _523  and  _525
REMARK  222  A    between atoms: _525  and  _526
REMARK  223  A    between atoms: _525  and  _528
REMARK  224  A    between atoms: _528  and  _529
REMARK  225  A    between atoms: _532  and  _534
REMARK  226  A    between atoms: _534  and  _535
REMARK  227  A    between atoms: _534  and  _537
REMARK  228  A    between atoms: _537  and  _538
REMARK  229  A    between atoms: _541  and  _543
REMARK  230  A    between atoms: _543  and  _544
REMARK  231  A    between atoms: _543  and  _546
REMARK  232  A    between atoms: _546  and  _547
REMARK  233  A    between atoms: _549  and  _551
REMARK  234  A    between atoms: _551  and  _552
REMARK  235  A    between atoms: _551  and  _554
REMARK  236  A    between atoms: _554  and  _555
REMARK  237  A    between atoms: _560  and  _562
REMARK  238  A    between atoms: _562  and  _563
REMARK  239  A    between atoms: _562  and  _565
REMARK  240  A    between atoms: _565  and  _566
REMARK  241  A    between atoms: _569  and  _571
REMARK  242  A    between atoms: _571  and  _572
REMARK  243  A    between atoms: _571  and  _574
REMARK  244  A    between atoms: _577  and  _579
REMARK  245  A    between atoms: _579  and  _580
REMARK  246  A    between atoms: _579  and  _582
REMARK  247  A    between atoms: _585  and  _587
REMARK  248  A    between atoms: _587  and  _588
REMARK  249  A    between atoms: _587  and  _590
REMARK  250  A    between atoms: _590  and  _591
REMARK  251  A    between atoms: _591  and  _592
REMARK  252  A    between atoms: _592  and  _593
REMARK  253  A    between atoms: _593  and  _594
REMARK  254  A    between atoms: _598  and  _600
REMARK  255  A    between atoms: _600  and  _601
REMARK  256  A    between atoms: _600  and  _603
REMARK  257  A    between atoms: _603  and  _604
REMARK  258  A    between atoms: _604  and  _605
REMARK  259  A    between atoms: _605  and  _606
REMARK  260  A    between atoms: _606  and  _607
REMARK  261  A    between atoms: _611  and  _613
REMARK  262  A    between atoms: _613  and  _614
REMARK  263  A    between atoms: _613  and  _616
REMARK  264  A    between atoms: _616  and  _617
REMARK  265  A    between atoms: _620  and  _622
REMARK  266  A    between atoms: _622  and  _623
REMARK  267  A    between atoms: _622  and  _625
REMARK  268  A    between atoms: _625  and  _626
REMARK  269  A    between atoms: _629  and  _631
REMARK  270  A    between atoms: _631  and  _632
REMARK  271  A    between atoms: _631  and  _634
REMARK  272  A    between atoms: _634  and  _635
REMARK  273  A    between atoms: _638  and  _640
REMARK  274  A    between atoms: _640  and  _641
REMARK  275  A    between atoms: _640  and  _643
REMARK  276  A    between atoms: _643  and  _644
REMARK  277  A    between atoms: _650  and  _652
REMARK  278  A    between atoms: _652  and  _653
REMARK  279  A    between atoms: _655  and  _657
REMARK  280  A    between atoms: _657  and  _658
REMARK  281  A    between atoms: _657  and  _660
REMARK  282  A    between atoms: _660  and  _661
REMARK  283  A    between atoms: _664  and  _666
REMARK  284  A    between atoms: _666  and  _667
REMARK  285  A    between atoms: _670  and  _672
REMARK  286  A    between atoms: _672  and  _673
REMARK  287  A    between atoms: _672  and  _675
REMARK  288  A    between atoms: _675  and  _676
REMARK  289  A    between atoms: _676  and  _677
REMARK  290  A    between atoms: _679  and  _681
REMARK  291  A    between atoms: _681  and  _682
REMARK  292  A    between atoms: _681  and  _684
REMARK  293  A    between atoms: _684  and  _685
REMARK  294  A    between atoms: _685  and  _686
REMARK  295  A    between atoms: _688  and  _690
REMARK  296  A    between atoms: _690  and  _691
REMARK  297  A    between atoms: _690  and  _693
REMARK  298  A    between atoms: _693  and  _694
REMARK  299  A    between atoms: _697  and  _699
REMARK  300  A    between atoms: _699  and  _700
REMARK  301  A    between atoms: _699  and  _702
REMARK  302  A    between atoms: _702  and  _703
REMARK  303  A    between atoms: _706  and  _708
REMARK  304  A    between atoms: _708  and  _709
REMARK  305  A    between atoms: _708  and  _711
REMARK  306  A    between atoms: _711  and  _712
REMARK  307  A    between atoms: _712  and  _713
REMARK                            x       y       z     vdW  Elec       q    Type
REMARK                         _______ _______ _______ _____ _____    ______ ____
ROOT
ATOM      1  CB  GLN A   1      39.826  54.973  18.089  0.00  0.00    +0.035 C 
ENDROOT
BRANCH   1   2
ATOM      2  CA  GLN A   1      38.657  54.099  17.608  0.00  0.00    +0.134 C 
BRANCH   2   3
ATOM      3  N   GLN A   1      39.177  52.895  16.979  0.00  0.00    -0.239 NA
ATOM      4  H   GLN A   1      40.102  52.937  16.505  0.00  0.00    +0.142 HD
ENDBRANCH   2   3
BRANCH   2   5
ATOM      5  C   GLN A   1      37.709  54.862  16.683  0.00  0.00    +0.224 C 
ATOM      6  O   GLN A   1      37.098  55.846  17.090  0.00  0.00    -0.287 OA
ENDBRANCH   2   5
ENDBRANCH   1   2
BRANCH   1   7
ATOM      7  CG  GLN A   1      40.758  54.212  19.031  0.00  0.00    +0.087 C 
BRANCH   7   8
ATOM      8  CD  GLN A   1      42.117  54.849  19.196  0.00  0.00    +0.219 C 
ATOM      9  NE2 GLN A   1      42.487  55.125  20.439  0.00  0.00    -0.329 N 
ATOM     10 HE21 GLN A   1      41.841  54.929  21.230  0.00  0.00    +0.145 HD
ATOM     11 HE22 GLN A   1      43.424  55.538  20.623  0.00  0.00    +0.145 HD
ATOM     12  OE1 GLN A   1      42.845  55.062  18.223  0.00  0.00    -0.275 OA
ENDBRANCH   7   8
ENDBRANCH   1   7
TORSDOF 5
REMARK  Name = ../refined-set-2016/3npc/3npc_pocket.pdb
REMARK  307 active torsions:
REMARK  status: ('A' for Active; 'I' for Inactive)
REMARK    1  A    between atoms: _1  and  _3
REMARK    2  A    between atoms: _3  and  _4
REMARK    3  A    between atoms: _3  and  _6
REMARK    4  A    between atoms: _6  and  _7
REMARK    5  A    between atoms: _10  and  _12
REMARK    6  A    between atoms: _12  and  _13
REMARK    7  A    between atoms: _15  and  _17
REMARK    8  A    between atoms: _17  and  _18
REMARK    9  A    between atoms: _17  and  _20
REMARK   10  A    between atoms: _20  and  _21
REMARK   11  A    between atoms: _21  and  _22
REMARK   12  A    between atoms: _27  and  _29
REMARK   13  A    between atoms: _29  and  _30
REMARK   14  A    between atoms: _29  and  _32
REMARK   15  A    between atoms: _32  and  _33
REMARK   16  A    between atoms: _36  and  _38
REMARK   17  A    between atoms: _38  and  _39
REMARK   18  A    between atoms: _38  and  _41
REMARK   19  A    between atoms: _44  and  _46
REMARK   20  A    between atoms: _46  and  _47
REMARK   21  A    between atoms: _46  and  _49
REMARK   22  A    between atoms: _51  and  _53
REMARK   23  A    between atoms: _53  and  _54
REMARK   24  A    between atoms: _57  and  _59
REMARK   25  A    between atoms: _59  and  _60
REMARK   26  A    between atoms: _59  and  _62
REMARK   27  A    between atoms: _62  and  _63
REMARK   28  A    between atoms: _68  and  _70
REMARK   29  A    between atoms: _70  and  _71
REMARK   30  A    between atoms: _70  and  _73
REMARK   31  A    between atoms: _76  and  _78
REMARK   32  A    between atoms: _78  and  _79
REMARK   33  A    between atoms: _82  and  _84
REMARK   34  A    between atoms: _84  and  _85
REMARK   35  A    between atoms: _84  and  _87
REMARK   36  A    between atoms: _90  and  _92
REMARK   37  A    between atoms: _92  and  _93
REMARK   38  A    between atoms: _92  and  _95
REMARK   39  A    between atoms: _95  and  _96
REMARK   40  A    between atoms: _96  and  _97
REMARK   41  A    between atoms: _97  and  _98
REMARK   42  A    between atoms: _98  and  _99
REMARK   43  A    between atoms: _103  and  _105
REMARK   44  A    between atoms: _105  and  _106
REMARK   45  A    between atoms: _105  and  _108
REMARK   46  A    between atoms: _108  and  _109
REMARK   47  A    between atoms: _109  and  _110
REMARK   48  A    between atoms: _110  and  _111
REMARK   49  A    between atoms: _111  and  _112
REMARK   50  A    between atoms: _116  and  _118
REMARK   51  A    between atoms: _118  and  _119
REMARK   52  A    between atoms: _118  and  _121
REMARK   53  A    between atoms: _121  and  _122
REMARK   54  A    between atoms: _125  and  _127
REMARK   55  A    between atoms: _127  and  _128
REMARK   56  A    between atoms: _127  and  _130
REMARK   57  A    between atoms: _130  and  _131
REMARK   58  A    between atoms: _134  and  _136
REMARK   59  A    between atoms: _136  and  _137
REMARK   60  A    between atoms: _136  and  _139
REMARK   61  A    between atoms: _139  and  _140
REMARK   62  A    between atoms: _145  and  _147
REMARK   63  A    between atoms: _147  and  _148
REMARK   64  A    between atoms: _147  and  _150
REMARK   65  A    between atoms: _150  and  _151
REMARK   66  A    between atoms: _151  and  _152
REMARK   67  A    between atoms: _152  and  _153
REMARK   68  A    between atoms: _153  and  _154
REMARK   69  A    between atoms: _158  and  _160
REMARK   70  A    between atoms: _160  and  _161
REMARK   71  A    between atoms: _160  and  _163
REMARK   72  A    between atoms: _163  and  _164
REMARK   73  A    between atoms: _164  and  _165
REMARK   74  A    between atoms: _165  and  _166
REMARK   75  A    between atoms: _175  and  _177
REMARK   76  A    between atoms: _177  and  _178
REMARK   77  A    between atoms: _181  and  _183
REMARK   78  A    between atoms: _183  and  _184
REMARK   79  A    between atoms: _183  and  _186
REMARK   80  A    between atoms: _186  and  _187
REMARK   81  A    between atoms: _192  and  _193
REMARK   82  A    between atoms: _195  and  _197
REMARK   83  A    between atoms: _197  and  _198
REMARK   84  A    between atoms: _197  and  _200
REMARK   85  A    between atoms: _200  and  _201
REMARK   86  A    between atoms: _201  and  _202
REMARK   87  A    between atoms: _202  and  _203
REMARK   88  A    between atoms: _212  and  _214
REMARK   89  A    between atoms: _214  and  _215
REMARK   90  A    between atoms: _214  and  _217
REMARK   91  A    between atoms: _217  and  _218
REMARK   92  A    between atoms: _218  and  _219
REMARK   93  A    between atoms: _222  and  _224
REMARK   94  A    between atoms: _224  and  _225
REMARK   95  A    between atoms: _224  and  _227
REMARK   96  A    between atoms: _227  and  _228
REMARK   97  A    between atoms: _231  and  _233
REMARK   98  A    between atoms: _233  and  _234
REMARK   99  A    between atoms: _233  and  _236
REMARK  100  A    between atoms: _239  and  _241
REMARK  101  A    between atoms: _241  and  _242
REMARK  102  A    between atoms: _241  and  _244
REMARK  103  A    between atoms: _244  and  _245
REMARK  104  A    between atoms: _248  and  _250
REMARK  105  A    between atoms: _250  and  _251
REMARK  106  A    between atoms: _250  and  _253
REMARK  107  A    between atoms: _253  and  _254
REMARK  108  A    between atoms: _257  and  _259
REMARK  109  A    between atoms: _259  and  _260
REMARK  110  A    between atoms: _259  and  _262
REMARK  111  A    between atoms: _262  and  _263
REMARK  112  A    between atoms: _263  and  _264
REMARK  113  A    between atoms: _264  and  _265
REMARK  114  A    between atoms: _265  and  _266
REMARK  115  A    between atoms: _270  and  _272
REMARK  116  A    between atoms: _272  and  _273
REMARK  117  A    between atoms: _272  and  _275
REMARK  118  A    between atoms: _277  and  _279
REMARK  119  A    between atoms: _279  and  _280
REMARK  120  A    between atoms: _279  and  _282
REMARK  121  A    between atoms: _285  and  _287
REMARK  122  A    between atoms: _287  and  _288
REMARK  123  A    between atoms: _287  and  _290
REMARK  124  A    between atoms: _290  and  _291
REMARK  125  A    between atoms: _296  and  _298
REMARK  126  A    between atoms: _298  and  _299
REMARK  127  A    between atoms: _298  and  _301
REMARK  128  A    between atoms: _301  and  _302
REMARK  129  A    between atoms: _305  and  _307
REMARK  130  A    between atoms: _307  and  _308
REMARK  131  A    between atoms: _307  and  _310
REMARK  132  A    between atoms: _310  and  _311
REMARK  133  A    between atoms: _314  and  _316
REMARK  134  A    between atoms: _316  and  _317
REMARK  135  A    between atoms: _316  and  _319
REMARK  136  A    between atoms: _319  and  _320
REMARK  137  A    between atoms: _322  and  _324
REMARK  138  A    between atoms: _324  and  _325
REMARK  139  A    between atoms: _324  and  _327
REMARK  140  A    between atoms: _327  and  _328
REMARK  141  A    between atoms: _331  and  _333
REMARK  142  A    between atoms: _333  and  _334
REMARK  143  A    between atoms: _333  and  _336
REMARK  144  A    between atoms: _336  and  _337
REMARK  145  A    between atoms: _340  and  _342
REMARK  146  A    between atoms: _342  and  _343
REMARK  147  A    between atoms: _342  and  _345
REMARK  148  A    between atoms: _345  and  _346
REMARK  149  A    between atoms: _351  and  _353
REMARK  150  A    between atoms: _353  and  _354
REMARK  151  A    between atoms: _353  and  _356
REMARK  152  A    between atoms: _356  and  _357
REMARK  153  A    between atoms: _362  and  _363
REMARK  154  A    between atoms: _365  and  _367
REMARK  155  A    between atoms: _367  and  _368
REMARK  156  A    between atoms: _367  and  _370
REMARK  157  A    between atoms: _370  and  _371
REMARK  158  A    between atoms: _374  and  _376
REMARK  159  A    between atoms: _376  and  _377
REMARK  160  A    between atoms: _376  and  _379
REMARK  161  A    between atoms: _382  and  _384
REMARK  162  A    between atoms: _384  and  _385
REMARK  163  A    between atoms: _384  and  _387
REMARK  164  A    between atoms: _387  and  _388
REMARK  165  A    between atoms: _388  and  _389
REMARK  166  A    between atoms: _391  and  _393
REMARK  167  A    between atoms: _393  and  _394
REMARK  168  A    between atoms: _393  and  _396
REMARK  169  A    between atoms: _396  and  _397
REMARK  170  A    between atoms: _397  and  _398
REMARK  171  A    between atoms: _401  and  _403
REMARK  172  A    between atoms: _403  and  _404
REMARK  173  A    between atoms: _403  and  _406
REMARK  174  A    between atoms: _406  and  _407
REMARK  175  A    between atoms: _410  and  _412
REMARK  176  A    between atoms: _412  and  _413
REMARK  177  A    between atoms: _412  and  _415
REMARK  178  A    between atoms: _415  and  _416
REMARK  179  A    between atoms: _416  and  _417
REMARK  180  A    between atoms: _419  and  _421
REMARK  181  A    between atoms: _421  and  _422
REMARK  182  A    between atoms: _421  and  _424
REMARK  183  A    between atoms: _424  and  _425
REMARK  184  A    between atoms: _428  and  _430
REMARK  185  A    between atoms: _430  and  _431
REMARK  186  A    between atoms: _434  and  _436
REMARK  187  A    between atoms: _436  and  _437
REMARK  188  A    between atoms: _436  and  _439
REMARK  189  A    between atoms: _439  and  _440
REMARK  190  A    between atoms: _445  and  _447
REMARK  191  A    between atoms: _447  and  _448
REMARK  192  A    between atoms: _447  and  _450
REMARK  193  A    between atoms: _450  and  _451
REMARK  194  A    between atoms: _451  and  _452
REMARK  195  A    between atoms: _457  and  _459
REMARK  196  A    between atoms: _459  and  _460
REMARK  197  A    between atoms: _462  and  _464
REMARK  198  A    between atoms: _464  and  _465
REMARK  199  A    between atoms: _464  and  _467
REMARK  200  A    between atoms: _467  and  _468
REMARK  201  A    between atoms: _471  and  _473
REMARK  202  A    between atoms: _473  and  _474
REMARK  203  A    between atoms: _477  and  _479
REMARK  204  A    between atoms: _479  and  _480
REMARK  205  A    between atoms: _479  and  _482
REMARK  206  A    between atoms: _482  and  _483
REMARK  207  A    between atoms: _486  and  _488
REMARK  208  A    between atoms: _488  and  _489
REMARK  209  A    between atoms: _488  and  _491
REMARK  210  A    between atoms: _491  and  _492
REMARK  211  A    between atoms: _495  and  _497
REMARK  212  A    between atoms: _497  and  _498
REMARK  213  A    between atoms: _497  and  _500
REMARK  214  A    between atoms: _500  and  _501
REMARK  215  A    between atoms: _506  and  _508
REMARK  216  A    between atoms: _508  and  _509
REMARK  217  A    between atoms: _508  and  _511
REMARK  218  A    between atoms: _511  and  _512
REMARK  219  A    between atoms: _512  and  _513
REMARK  220  A    between atoms: _513  and  _514
REMARK  221  A    between atoms: _523  and  _525
REMARK  222  A    between atoms: _525  and  _526
REMARK  223  A    between atoms: _525  and  _528
REMARK  224  A    between atoms: _528  and  _529
REMARK  225  A    between atoms: _532  and  _534
REMARK  226  A    between atoms: _534  and  _535
REMARK  227  A    between atoms: _534  and  _537
REMARK  228  A    between atoms: _537  and  _538
REMARK  229  A    between atoms: _541  and  _543
REMARK  230  A    between atoms: _543  and  _544
REMARK  231  A    between atoms: _543  and  _546
REMARK  232  A    between atoms: _546  and  _547
REMARK  233  A    between atoms: _549  and  _551
REMARK  234  A    between atoms: _551  and  _552
REMARK  235  A    between atoms: _551  and  _554
REMARK  236  A    between atoms: _554  and  _555
REMARK  237  A    between atoms: _560  and  _562
REMARK  238  A    between atoms: _562  and  _563
REMARK  239  A    between atoms: _562  and  _565
REMARK  240  A    between atoms: _565  and  _566
REMARK  241  A    between atoms: _569  and  _571
REMARK  242  A    between atoms: _571  and  _572
REMARK  243  A    between atoms: _571  and  _574
REMARK  244  A    between atoms: _577  and  _579
REMARK  245  A    between atoms: _579  and  _580
REMARK  246  A    between atoms: _579  and  _582
REMARK  247  A    between atoms: _585  and  _587
REMARK  248  A    between atoms: _587  and  _588
REMARK  249  A    between atoms: _587  and  _590
REMARK  250  A    between atoms: _590  and  _591
REMARK  251  A    between atoms: _591  and  _592
REMARK  252  A    between atoms: _592  and  _593
REMARK  253  A    between atoms: _593  and  _594
REMARK  254  A    between atoms: _598  and  _600
REMARK  255  A    between atoms: _600  and  _601
REMARK  256  A    between atoms: _600  and  _603
REMARK  257  A    between atoms: _603  and  _604
REMARK  258  A    between atoms: _604  and  _605
REMARK  259  A    between atoms: _605  and  _606
REMARK  260  A    between atoms: _606  and  _607
REMARK  261  A    between atoms: _611  and  _613
REMARK  262  A    between atoms: _613  and  _614
REMARK  263  A    between atoms: _613  and  _616
REMARK  264  A    between atoms: _616  and  _617
REMARK  265  A    between atoms: _620  and  _622
REMARK  266  A    between atoms: _622  and  _623
REMARK  267  A    between atoms: _622  and  _625
REMARK  268  A    between atoms: _625  and  _626
REMARK  269  A    between atoms: _629  and  _631
REMARK  270  A    between atoms: _631  and  _632
REMARK  271  A    between atoms: _631  and  _634
REMARK  272  A    between atoms: _634  and  _635
REMARK  273  A    between atoms: _638  and  _640
REMARK  274  A    between atoms: _640  and  _641
REMARK  275  A    between atoms: _640  and  _643
REMARK  276  A    between atoms: _643  and  _644
REMARK  277  A    between atoms: _650  and  _652
REMARK  278  A    between atoms: _652  and  _653
REMARK  279  A    between atoms: _655  and  _657
REMARK  280  A    between atoms: _657  and  _658
REMARK  281  A    between atoms: _657  and  _660
REMARK  282  A    between atoms: _660  and  _661
REMARK  283  A    between atoms: _664  and  _666
REMARK  284  A    between atoms: _666  and  _667
REMARK  285  A    between atoms: _670  and  _672
REMARK  286  A    between atoms: _672  and  _673
REMARK  287  A    between atoms: _672  and  _675
REMARK  288  A    between atoms: _675  and  _676
REMARK  289  A    between atoms: _676  and  _677
REMARK  290  A    between atoms: _679  and  _681
REMARK  291  A    between atoms: _681  and  _682
REMARK  292  A    between atoms: _681  and  _684
REMARK  293  A    between atoms: _684  and  _685
REMARK  294  A    between atoms: _685  and  _686
REMARK  295  A    between atoms: _688  and  _690
REMARK  296  A    between atoms: _690  and  _691
REMARK  297  A    between atoms: _690  and  _693
REMARK  298  A    between atoms: _693  and  _694
REMARK  299  A    between atoms: _697  and  _699
REMARK  300  A    between atoms: _699  and  _700
REMARK  301  A    between atoms: _699  and  _702
REMARK  302  A    between atoms: _702  and  _703
REMARK  303  A    between atoms: _706  and  _708
REMARK  304  A    between atoms: _708  and  _709
REMARK  305  A    between atoms: _708  and  _711
REMARK  306  A    between atoms: _711  and  _712
REMARK  307  A    between atoms: _712  and  _713
REMARK                            x       y       z     vdW  Elec       q    Type
REMARK                         _______ _______ _______ _____ _____    ______ ____
ROOT
ATOM      1  CA  GLY A   1      46.514  50.146  -0.258  0.00  0.00    +0.156 C 
ENDROOT
BRANCH   1   2
ATOM      2  N   GLY A   1      45.401  50.724  -0.994  0.00  0.00    -0.238 NA
ATOM      3  H   GLY A   1      44.632  51.177  -0.460  0.00  0.00    +0.142 HD
ENDBRANCH   1   2
BRANCH   1   4
ATOM      4  C   GLY A   1      46.673  48.662  -0.519  0.00  0.00    +0.226 C 
ATOM      5  O   GLY A   1      47.783  48.187  -0.775  0.00  0.00    -0.287 OA
ENDBRANCH   1   4
TORSDOF 2
REMARK  Name = ../refined-set-2016/3npc/3npc_pocket.pdb
REMARK  307 active torsions:
REMARK  status: ('A' for Active; 'I' for Inactive)
REMARK    1  A    between atoms: _1  and  _3
REMARK    2  A    between atoms: _3  and  _4
REMARK    3  A    between atoms: _3  and  _6
REMARK    4  A    between atoms: _6  and  _7
REMARK    5  A    between atoms: _10  and  _12
REMARK    6  A    between atoms: _12  and  _13
REMARK    7  A    between atoms: _15  and  _17
REMARK    8  A    between atoms: _17  and  _18
REMARK    9  A    between atoms: _17  and  _20
REMARK   10  A    between atoms: _20  and  _21
REMARK   11  A    between atoms: _21  and  _22
REMARK   12  A    between atoms: _27  and  _29
REMARK   13  A    between atoms: _29  and  _30
REMARK   14  A    between atoms: _29  and  _32
REMARK   15  A    between atoms: _32  and  _33
REMARK   16  A    between atoms: _36  and  _38
REMARK   17  A    between atoms: _38  and  _39
REMARK   18  A    between atoms: _38  and  _41
REMARK   19  A    between atoms: _44  and  _46
REMARK   20  A    between atoms: _46  and  _47
REMARK   21  A    between atoms: _46  and  _49
REMARK   22  A    between atoms: _51  and  _53
REMARK   23  A    between atoms: _53  and  _54
REMARK   24  A    between atoms: _57  and  _59
REMARK   25  A    between atoms: _59  and  _60
REMARK   26  A    between atoms: _59  and  _62
REMARK   27  A    between atoms: _62  and  _63
REMARK   28  A    between atoms: _68  and  _70
REMARK   29  A    between atoms: _70  and  _71
REMARK   30  A    between atoms: _70  and  _73
REMARK   31  A    between atoms: _76  and  _78
REMARK   32  A    between atoms: _78  and  _79
REMARK   33  A    between atoms: _82  and  _84
REMARK   34  A    between atoms: _84  and  _85
REMARK   35  A    between atoms: _84  and  _87
REMARK   36  A    between atoms: _90  and  _92
REMARK   37  A    between atoms: _92  and  _93
REMARK   38  A    between atoms: _92  and  _95
REMARK   39  A    between atoms: _95  and  _96
REMARK   40  A    between atoms: _96  and  _97
REMARK   41  A    between atoms: _97  and  _98
REMARK   42  A    between atoms: _98  and  _99
REMARK   43  A    between atoms: _103  and  _105
REMARK   44  A    between atoms: _105  and  _106
REMARK   45  A    between atoms: _105  and  _108
REMARK   46  A    between atoms: _108  and  _109
REMARK   47  A    between atoms: _109  and  _110
REMARK   48  A    between atoms: _110  and  _111
REMARK   49  A    between atoms: _111  and  _112
REMARK   50  A    between atoms: _116  and  _118
REMARK   51  A    between atoms: _118  and  _119
REMARK   52  A    between atoms: _118  and  _121
REMARK   53  A    between atoms: _121  and  _122
REMARK   54  A    between atoms: _125  and  _127
REMARK   55  A    between atoms: _127  and  _128
REMARK   56  A    between atoms: _127  and  _130
REMARK   57  A    between atoms: _130  and  _131
REMARK   58  A    between atoms: _134  and  _136
REMARK   59  A    between atoms: _136  and  _137
REMARK   60  A    between atoms: _136  and  _139
REMARK   61  A    between atoms: _139  and  _140
REMARK   62  A    between atoms: _145  and  _147
REMARK   63  A    between atoms: _147  and  _148
REMARK   64  A    between atoms: _147  and  _150
REMARK   65  A    between atoms: _150  and  _151
REMARK   66  A    between atoms: _151  and  _152
REMARK   67  A    between atoms: _152  and  _153
REMARK   68  A    between atoms: _153  and  _154
REMARK   69  A    between atoms: _158  and  _160
REMARK   70  A    between atoms: _160  and  _161
REMARK   71  A    between atoms: _160  and  _163
REMARK   72  A    between atoms: _163  and  _164
REMARK   73  A    between atoms: _164  and  _165
REMARK   74  A    between atoms: _165  and  _166
REMARK   75  A    between atoms: _175  and  _177
REMARK   76  A    between atoms: _177  and  _178
REMARK   77  A    between atoms: _181  and  _183
REMARK   78  A    between atoms: _183  and  _184
REMARK   79  A    between atoms: _183  and  _186
REMARK   80  A    between atoms: _186  and  _187
REMARK   81  A    between atoms: _192  and  _193
REMARK   82  A    between atoms: _195  and  _197
REMARK   83  A    between atoms: _197  and  _198
REMARK   84  A    between atoms: _197  and  _200
REMARK   85  A    between atoms: _200  and  _201
REMARK   86  A    between atoms: _201  and  _202
REMARK   87  A    between atoms: _202  and  _203
REMARK   88  A    between atoms: _212  and  _214
REMARK   89  A    between atoms: _214  and  _215
REMARK   90  A    between atoms: _214  and  _217
REMARK   91  A    between atoms: _217  and  _218
REMARK   92  A    between atoms: _218  and  _219
REMARK   93  A    between atoms: _222  and  _224
REMARK   94  A    between atoms: _224  and  _225
REMARK   95  A    between atoms: _224  and  _227
REMARK   96  A    between atoms: _227  and  _228
REMARK   97  A    between atoms: _231  and  _233
REMARK   98  A    between atoms: _233  and  _234
REMARK   99  A    between atoms: _233  and  _236
REMARK  100  A    between atoms: _239  and  _241
REMARK  101  A    between atoms: _241  and  _242
REMARK  102  A    between atoms: _241  and  _244
REMARK  103  A    between atoms: _244  and  _245
REMARK  104  A    between atoms: _248  and  _250
REMARK  105  A    between atoms: _250  and  _251
REMARK  106  A    between atoms: _250  and  _253
REMARK  107  A    between atoms: _253  and  _254
REMARK  108  A    between atoms: _257  and  _259
REMARK  109  A    between atoms: _259  and  _260
REMARK  110  A    between atoms: _259  and  _262
REMARK  111  A    between atoms: _262  and  _263
REMARK  112  A    between atoms: _263  and  _264
REMARK  113  A    between atoms: _264  and  _265
REMARK  114  A    between atoms: _265  and  _266
REMARK  115  A    between atoms: _270  and  _272
REMARK  116  A    between atoms: _272  and  _273
REMARK  117  A    between atoms: _272  and  _275
REMARK  118  A    between atoms: _277  and  _279
REMARK  119  A    between atoms: _279  and  _280
REMARK  120  A    between atoms: _279  and  _282
REMARK  121  A    between atoms: _285  and  _287
REMARK  122  A    between atoms: _287  and  _288
REMARK  123  A    between atoms: _287  and  _290
REMARK  124  A    between atoms: _290  and  _291
REMARK  125  A    between atoms: _296  and  _298
REMARK  126  A    between atoms: _298  and  _299
REMARK  127  A    between atoms: _298  and  _301
REMARK  128  A    between atoms: _301  and  _302
REMARK  129  A    between atoms: _305  and  _307
REMARK  130  A    between atoms: _307  and  _308
REMARK  131  A    between atoms: _307  and  _310
REMARK  132  A    between atoms: _310  and  _311
REMARK  133  A    between atoms: _314  and  _316
REMARK  134  A    between atoms: _316  and  _317
REMARK  135  A    between atoms: _316  and  _319
REMARK  136  A    between atoms: _319  and  _320
REMARK  137  A    between atoms: _322  and  _324
REMARK  138  A    between atoms: _324  and  _325
REMARK  139  A    between atoms: _324  and  _327
REMARK  140  A    between atoms: _327  and  _328
REMARK  141  A    between atoms: _331  and  _333
REMARK  142  A    between atoms: _333  and  _334
REMARK  143  A    between atoms: _333  and  _336
REMARK  144  A    between atoms: _336  and  _337
REMARK  145  A    between atoms: _340  and  _342
REMARK  146  A    between atoms: _342  and  _343
REMARK  147  A    between atoms: _342  and  _345
REMARK  148  A    between atoms: _345  and  _346
REMARK  149  A    between atoms: _351  and  _353
REMARK  150  A    between atoms: _353  and  _354
REMARK  151  A    between atoms: _353  and  _356
REMARK  152  A    between atoms: _356  and  _357
REMARK  153  A    between atoms: _362  and  _363
REMARK  154  A    between atoms: _365  and  _367
REMARK  155  A    between atoms: _367  and  _368
REMARK  156  A    between atoms: _367  and  _370
REMARK  157  A    between atoms: _370  and  _371
REMARK  158  A    between atoms: _374  and  _376
REMARK  159  A    between atoms: _376  and  _377
REMARK  160  A    between atoms: _376  and  _379
REMARK  161  A    between atoms: _382  and  _384
REMARK  162  A    between atoms: _384  and  _385
REMARK  163  A    between atoms: _384  and  _387
REMARK  164  A    between atoms: _387  and  _388
REMARK  165  A    between atoms: _388  and  _389
REMARK  166  A    between atoms: _391  and  _393
REMARK  167  A    between atoms: _393  and  _394
REMARK  168  A    between atoms: _393  and  _396
REMARK  169  A    between atoms: _396  and  _397
REMARK  170  A    between atoms: _397  and  _398
REMARK  171  A    between atoms: _401  and  _403
REMARK  172  A    between atoms: _403  and  _404
REMARK  173  A    between atoms: _403  and  _406
REMARK  174  A    between atoms: _406  and  _407
REMARK  175  A    between atoms: _410  and  _412
REMARK  176  A    between atoms: _412  and  _413
REMARK  177  A    between atoms: _412  and  _415
REMARK  178  A    between atoms: _415  and  _416
REMARK  179  A    between atoms: _416  and  _417
REMARK  180  A    between atoms: _419  and  _421
REMARK  181  A    between atoms: _421  and  _422
REMARK  182  A    between atoms: _421  and  _424
REMARK  183  A    between atoms: _424  and  _425
REMARK  184  A    between atoms: _428  and  _430
REMARK  185  A    between atoms: _430  and  _431
REMARK  186  A    between atoms: _434  and  _436
REMARK  187  A    between atoms: _436  and  _437
REMARK  188  A    between atoms: _436  and  _439
REMARK  189  A    between atoms: _439  and  _440
REMARK  190  A    between atoms: _445  and  _447
REMARK  191  A    between atoms: _447  and  _448
REMARK  192  A    between atoms: _447  and  _450
REMARK  193  A    between atoms: _450  and  _451
REMARK  194  A    between atoms: _451  and  _452
REMARK  195  A    between atoms: _457  and  _459
REMARK  196  A    between atoms: _459  and  _460
REMARK  197  A    between atoms: _462  and  _464
REMARK  198  A    between atoms: _464  and  _465
REMARK  199  A    between atoms: _464  and  _467
REMARK  200  A    between atoms: _467  and  _468
REMARK  201  A    between atoms: _471  and  _473
REMARK  202  A    between atoms: _473  and  _474
REMARK  203  A    between atoms: _477  and  _479
REMARK  204  A    between atoms: _479  and  _480
REMARK  205  A    between atoms: _479  and  _482
REMARK  206  A    between atoms: _482  and  _483
REMARK  207  A    between atoms: _486  and  _488
REMARK  208  A    between atoms: _488  and  _489
REMARK  209  A    between atoms: _488  and  _491
REMARK  210  A    between atoms: _491  and  _492
REMARK  211  A    between atoms: _495  and  _497
REMARK  212  A    between atoms: _497  and  _498
REMARK  213  A    between atoms: _497  and  _500
REMARK  214  A    between atoms: _500  and  _501
REMARK  215  A    between atoms: _506  and  _508
REMARK  216  A    between atoms: _508  and  _509
REMARK  217  A    between atoms: _508  and  _511
REMARK  218  A    between atoms: _511  and  _512
REMARK  219  A    between atoms: _512  and  _513
REMARK  220  A    between atoms: _513  and  _514
REMARK  221  A    between atoms: _523  and  _525
REMARK  222  A    between atoms: _525  and  _526
REMARK  223  A    between atoms: _525  and  _528
REMARK  224  A    between atoms: _528  and  _529
REMARK  225  A    between atoms: _532  and  _534
REMARK  226  A    between atoms: _534  and  _535
REMARK  227  A    between atoms: _534  and  _537
REMARK  228  A    between atoms: _537  and  _538
REMARK  229  A    between atoms: _541  and  _543
REMARK  230  A    between atoms: _543  and  _544
REMARK  231  A    between atoms: _543  and  _546
REMARK  232  A    between atoms: _546  and  _547
REMARK  233  A    between atoms: _549  and  _551
REMARK  234  A    between atoms: _551  and  _552
REMARK  235  A    between atoms: _551  and  _554
REMARK  236  A    between atoms: _554  and  _555
REMARK  237  A    between atoms: _560  and  _562
REMARK  238  A    between atoms: _562  and  _563
REMARK  239  A    between atoms: _562  and  _565
REMARK  240  A    between atoms: _565  and  _566
REMARK  241  A    between atoms: _569  and  _571
REMARK  242  A    between atoms: _571  and  _572
REMARK  243  A    between atoms: _571  and  _574
REMARK  244  A    between atoms: _577  and  _579
REMARK  245  A    between atoms: _579  and  _580
REMARK  246  A    between atoms: _579  and  _582
REMARK  247  A    between atoms: _585  and  _587
REMARK  248  A    between atoms: _587  and  _588
REMARK  249  A    between atoms: _587  and  _590
REMARK  250  A    between atoms: _590  and  _591
REMARK  251  A    between atoms: _591  and  _592
REMARK  252  A    between atoms: _592  and  _593
REMARK  253  A    between atoms: _593  and  _594
REMARK  254  A    between atoms: _598  and  _600
REMARK  255  A    between atoms: _600  and  _601
REMARK  256  A    between atoms: _600  and  _603
REMARK  257  A    between atoms: _603  and  _604
REMARK  258  A    between atoms: _604  and  _605
REMARK  259  A    between atoms: _605  and  _606
REMARK  260  A    between atoms: _606  and  _607
REMARK  261  A    between atoms: _611  and  _613
REMARK  262  A    between atoms: _613  and  _614
REMARK  263  A    between atoms: _613  and  _616
REMARK  264  A    between atoms: _616  and  _617
REMARK  265  A    between atoms: _620  and  _622
REMARK  266  A    between atoms: _622  and  _623
REMARK  267  A    between atoms: _622  and  _625
REMARK  268  A    between atoms: _625  and  _626
REMARK  269  A    between atoms: _629  and  _631
REMARK  270  A    between atoms: _631  and  _632
REMARK  271  A    between atoms: _631  and  _634
REMARK  272  A    between atoms: _634  and  _635
REMARK  273  A    between atoms: _638  and  _640
REMARK  274  A    between atoms: _640  and  _641
REMARK  275  A    between atoms: _640  and  _643
REMARK  276  A    between atoms: _643  and  _644
REMARK  277  A    between atoms: _650  and  _652
REMARK  278  A    between atoms: _652  and  _653
REMARK  279  A    between atoms: _655  and  _657
REMARK  280  A    between atoms: _657  and  _658
REMARK  281  A    between atoms: _657  and  _660
REMARK  282  A    between atoms: _660  and  _661
REMARK  283  A    between atoms: _664  and  _666
REMARK  284  A    between atoms: _666  and  _667
REMARK  285  A    between atoms: _670  and  _672
REMARK  286  A    between atoms: _672  and  _673
REMARK  287  A    between atoms: _672  and  _675
REMARK  288  A    between atoms: _675  and  _676
REMARK  289  A    between atoms: _676  and  _677
REMARK  290  A    between atoms: _679  and  _681
REMARK  291  A    between atoms: _681  and  _682
REMARK  292  A    between atoms: _681  and  _684
REMARK  293  A    between atoms: _684  and  _685
REMARK  294  A    between atoms: _685  and  _686
REMARK  295  A    between atoms: _688  and  _690
REMARK  296  A    between atoms: _690  and  _691
REMARK  297  A    between atoms: _690  and  _693
REMARK  298  A    between atoms: _693  and  _694
REMARK  299  A    between atoms: _697  and  _699
REMARK  300  A    between atoms: _699  and  _700
REMARK  301  A    between atoms: _699  and  _702
REMARK  302  A    between atoms: _702  and  _703
REMARK  303  A    between atoms: _706  and  _708
REMARK  304  A    between atoms: _708  and  _709
REMARK  305  A    between atoms: _708  and  _711
REMARK  306  A    between atoms: _711  and  _712
REMARK  307  A    between atoms: _712  and  _713
REMARK                            x       y       z     vdW  Elec       q    Type
REMARK                         _______ _______ _______ _____ _____    ______ ____
ROOT
ATOM      1  CA  LEU A   1      50.446  45.332  -1.742  0.00  0.00    +0.133 C 
ENDROOT
BRANCH   1   2
ATOM      2  N   LEU A   1      49.827  46.501  -2.376  0.00  0.00    -0.239 NA
ATOM      3  H   LEU A   1      49.052  46.981  -1.875  0.00  0.00    +0.142 HD
ENDBRANCH   1   2
BRANCH   1   4
ATOM      4  C   LEU A   1      50.379  44.093  -2.628  0.00  0.00    +0.224 C 
ATOM      5  O   LEU A   1      51.382  43.401  -2.814  0.00  0.00    -0.287 OA
ENDBRANCH   1   4
BRANCH   1   6
ATOM      6  CB  LEU A   1      49.795  45.025  -0.378  0.00  0.00    +0.025 C 
BRANCH   6   7
ATOM      7  CG  LEU A   1      50.047  45.941   0.828  0.00  0.00    +0.002 C 
ATOM      8  CD2 LEU A   1      49.157  45.536   1.989  0.00  0.00    +0.000 C 
ATOM      9  CD1 LEU A   1      51.498  45.944   1.271  0.00  0.00    +0.000 C 
ENDBRANCH   6   7
ENDBRANCH   1   6
TORSDOF 4
REMARK  Name = ../refined-set-2016/3npc/3npc_pocket.pdb
REMARK  307 active torsions:
REMARK  status: ('A' for Active; 'I' for Inactive)
REMARK    1  A    between atoms: _1  and  _3
REMARK    2  A    between atoms: _3  and  _4
REMARK    3  A    between atoms: _3  and  _6
REMARK    4  A    between atoms: _6  and  _7
REMARK    5  A    between atoms: _10  and  _12
REMARK    6  A    between atoms: _12  and  _13
REMARK    7  A    between atoms: _15  and  _17
REMARK    8  A    between atoms: _17  and  _18
REMARK    9  A    between atoms: _17  and  _20
REMARK   10  A    between atoms: _20  and  _21
REMARK   11  A    between atoms: _21  and  _22
REMARK   12  A    between atoms: _27  and  _29
REMARK   13  A    between atoms: _29  and  _30
REMARK   14  A    between atoms: _29  and  _32
REMARK   15  A    between atoms: _32  and  _33
REMARK   16  A    between atoms: _36  and  _38
REMARK   17  A    between atoms: _38  and  _39
REMARK   18  A    between atoms: _38  and  _41
REMARK   19  A    between atoms: _44  and  _46
REMARK   20  A    between atoms: _46  and  _47
REMARK   21  A    between atoms: _46  and  _49
REMARK   22  A    between atoms: _51  and  _53
REMARK   23  A    between atoms: _53  and  _54
REMARK   24  A    between atoms: _57  and  _59
REMARK   25  A    between atoms: _59  and  _60
REMARK   26  A    between atoms: _59  and  _62
REMARK   27  A    between atoms: _62  and  _63
REMARK   28  A    between atoms: _68  and  _70
REMARK   29  A    between atoms: _70  and  _71
REMARK   30  A    between atoms: _70  and  _73
REMARK   31  A    between atoms: _76  and  _78
REMARK   32  A    between atoms: _78  and  _79
REMARK   33  A    between atoms: _82  and  _84
REMARK   34  A    between atoms: _84  and  _85
REMARK   35  A    between atoms: _84  and  _87
REMARK   36  A    between atoms: _90  and  _92
REMARK   37  A    between atoms: _92  and  _93
REMARK   38  A    between atoms: _92  and  _95
REMARK   39  A    between atoms: _95  and  _96
REMARK   40  A    between atoms: _96  and  _97
REMARK   41  A    between atoms: _97  and  _98
REMARK   42  A    between atoms: _98  and  _99
REMARK   43  A    between atoms: _103  and  _105
REMARK   44  A    between atoms: _105  and  _106
REMARK   45  A    between atoms: _105  and  _108
REMARK   46  A    between atoms: _108  and  _109
REMARK   47  A    between atoms: _109  and  _110
REMARK   48  A    between atoms: _110  and  _111
REMARK   49  A    between atoms: _111  and  _112
REMARK   50  A    between atoms: _116  and  _118
REMARK   51  A    between atoms: _118  and  _119
REMARK   52  A    between atoms: _118  and  _121
REMARK   53  A    between atoms: _121  and  _122
REMARK   54  A    between atoms: _125  and  _127
REMARK   55  A    between atoms: _127  and  _128
REMARK   56  A    between atoms: _127  and  _130
REMARK   57  A    between atoms: _130  and  _131
REMARK   58  A    between atoms: _134  and  _136
REMARK   59  A    between atoms: _136  and  _137
REMARK   60  A    between atoms: _136  and  _139
REMARK   61  A    between atoms: _139  and  _140
REMARK   62  A    between atoms: _145  and  _147
REMARK   63  A    between atoms: _147  and  _148
REMARK   64  A    between atoms: _147  and  _150
REMARK   65  A    between atoms: _150  and  _151
REMARK   66  A    between atoms: _151  and  _152
REMARK   67  A    between atoms: _152  and  _153
REMARK   68  A    between atoms: _153  and  _154
REMARK   69  A    between atoms: _158  and  _160
REMARK   70  A    between atoms: _160  and  _161
REMARK   71  A    between atoms: _160  and  _163
REMARK   72  A    between atoms: _163  and  _164
REMARK   73  A    between atoms: _164  and  _165
REMARK   74  A    between atoms: _165  and  _166
REMARK   75  A    between atoms: _175  and  _177
REMARK   76  A    between atoms: _177  and  _178
REMARK   77  A    between atoms: _181  and  _183
REMARK   78  A    between atoms: _183  and  _184
REMARK   79  A    between atoms: _183  and  _186
REMARK   80  A    between atoms: _186  and  _187
REMARK   81  A    between atoms: _192  and  _193
REMARK   82  A    between atoms: _195  and  _197
REMARK   83  A    between atoms: _197  and  _198
REMARK   84  A    between atoms: _197  and  _200
REMARK   85  A    between atoms: _200  and  _201
REMARK   86  A    between atoms: _201  and  _202
REMARK   87  A    between atoms: _202  and  _203
REMARK   88  A    between atoms: _212  and  _214
REMARK   89  A    between atoms: _214  and  _215
REMARK   90  A    between atoms: _214  and  _217
REMARK   91  A    between atoms: _217  and  _218
REMARK   92  A    between atoms: _218  and  _219
REMARK   93  A    between atoms: _222  and  _224
REMARK   94  A    between atoms: _224  and  _225
REMARK   95  A    between atoms: _224  and  _227
REMARK   96  A    between atoms: _227  and  _228
REMARK   97  A    between atoms: _231  and  _233
REMARK   98  A    between atoms: _233  and  _234
REMARK   99  A    between atoms: _233  and  _236
REMARK  100  A    between atoms: _239  and  _241
REMARK  101  A    between atoms: _241  and  _242
REMARK  102  A    between atoms: _241  and  _244
REMARK  103  A    between atoms: _244  and  _245
REMARK  104  A    between atoms: _248  and  _250
REMARK  105  A    between atoms: _250  and  _251
REMARK  106  A    between atoms: _250  and  _253
REMARK  107  A    between atoms: _253  and  _254
REMARK  108  A    between atoms: _257  and  _259
REMARK  109  A    between atoms: _259  and  _260
REMARK  110  A    between atoms: _259  and  _262
REMARK  111  A    between atoms: _262  and  _263
REMARK  112  A    between atoms: _263  and  _264
REMARK  113  A    between atoms: _264  and  _265
REMARK  114  A    between atoms: _265  and  _266
REMARK  115  A    between atoms: _270  and  _272
REMARK  116  A    between atoms: _272  and  _273
REMARK  117  A    between atoms: _272  and  _275
REMARK  118  A    between atoms: _277  and  _279
REMARK  119  A    between atoms: _279  and  _280
REMARK  120  A    between atoms: _279  and  _282
REMARK  121  A    between atoms: _285  and  _287
REMARK  122  A    between atoms: _287  and  _288
REMARK  123  A    between atoms: _287  and  _290
REMARK  124  A    between atoms: _290  and  _291
REMARK  125  A    between atoms: _296  and  _298
REMARK  126  A    between atoms: _298  and  _299
REMARK  127  A    between atoms: _298  and  _301
REMARK  128  A    between atoms: _301  and  _302
REMARK  129  A    between atoms: _305  and  _307
REMARK  130  A    between atoms: _307  and  _308
REMARK  131  A    between atoms: _307  and  _310
REMARK  132  A    between atoms: _310  and  _311
REMARK  133  A    between atoms: _314  and  _316
REMARK  134  A    between atoms: _316  and  _317
REMARK  135  A    between atoms: _316  and  _319
REMARK  136  A    between atoms: _319  and  _320
REMARK  137  A    between atoms: _322  and  _324
REMARK  138  A    between atoms: _324  and  _325
REMARK  139  A    between atoms: _324  and  _327
REMARK  140  A    between atoms: _327  and  _328
REMARK  141  A    between atoms: _331  and  _333
REMARK  142  A    between atoms: _333  and  _334
REMARK  143  A    between atoms: _333  and  _336
REMARK  144  A    between atoms: _336  and  _337
REMARK  145  A    between atoms: _340  and  _342
REMARK  146  A    between atoms: _342  and  _343
REMARK  147  A    between atoms: _342  and  _345
REMARK  148  A    between atoms: _345  and  _346
REMARK  149  A    between atoms: _351  and  _353
REMARK  150  A    between atoms: _353  and  _354
REMARK  151  A    between atoms: _353  and  _356
REMARK  152  A    between atoms: _356  and  _357
REMARK  153  A    between atoms: _362  and  _363
REMARK  154  A    between atoms: _365  and  _367
REMARK  155  A    between atoms: _367  and  _368
REMARK  156  A    between atoms: _367  and  _370
REMARK  157  A    between atoms: _370  and  _371
REMARK  158  A    between atoms: _374  and  _376
REMARK  159  A    between atoms: _376  and  _377
REMARK  160  A    between atoms: _376  and  _379
REMARK  161  A    between atoms: _382  and  _384
REMARK  162  A    between atoms: _384  and  _385
REMARK  163  A    between atoms: _384  and  _387
REMARK  164  A    between atoms: _387  and  _388
REMARK  165  A    between atoms: _388  and  _389
REMARK  166  A    between atoms: _391  and  _393
REMARK  167  A    between atoms: _393  and  _394
REMARK  168  A    between atoms: _393  and  _396
REMARK  169  A    between atoms: _396  and  _397
REMARK  170  A    between atoms: _397  and  _398
REMARK  171  A    between atoms: _401  and  _403
REMARK  172  A    between atoms: _403  and  _404
REMARK  173  A    between atoms: _403  and  _406
REMARK  174  A    between atoms: _406  and  _407
REMARK  175  A    between atoms: _410  and  _412
REMARK  176  A    between atoms: _412  and  _413
REMARK  177  A    between atoms: _412  and  _415
REMARK  178  A    between atoms: _415  and  _416
REMARK  179  A    between atoms: _416  and  _417
REMARK  180  A    between atoms: _419  and  _421
REMARK  181  A    between atoms: _421  and  _422
REMARK  182  A    between atoms: _421  and  _424
REMARK  183  A    between atoms: _424  and  _425
REMARK  184  A    between atoms: _428  and  _430
REMARK  185  A    between atoms: _430  and  _431
REMARK  186  A    between atoms: _434  and  _436
REMARK  187  A    between atoms: _436  and  _437
REMARK  188  A    between atoms: _436  and  _439
REMARK  189  A    between atoms: _439  and  _440
REMARK  190  A    between atoms: _445  and  _447
REMARK  191  A    between atoms: _447  and  _448
REMARK  192  A    between atoms: _447  and  _450
REMARK  193  A    between atoms: _450  and  _451
REMARK  194  A    between atoms: _451  and  _452
REMARK  195  A    between atoms: _457  and  _459
REMARK  196  A    between atoms: _459  and  _460
REMARK  197  A    between atoms: _462  and  _464
REMARK  198  A    between atoms: _464  and  _465
REMARK  199  A    between atoms: _464  and  _467
REMARK  200  A    between atoms: _467  and  _468
REMARK  201  A    between atoms: _471  and  _473
REMARK  202  A    between atoms: _473  and  _474
REMARK  203  A    between atoms: _477  and  _479
REMARK  204  A    between atoms: _479  and  _480
REMARK  205  A    between atoms: _479  and  _482
REMARK  206  A    between atoms: _482  and  _483
REMARK  207  A    between atoms: _486  and  _488
REMARK  208  A    between atoms: _488  and  _489
REMARK  209  A    between atoms: _488  and  _491
REMARK  210  A    between atoms: _491  and  _492
REMARK  211  A    between atoms: _495  and  _497
REMARK  212  A    between atoms: _497  and  _498
REMARK  213  A    between atoms: _497  and  _500
REMARK  214  A    between atoms: _500  and  _501
REMARK  215  A    between atoms: _506  and  _508
REMARK  216  A    between atoms: _508  and  _509
REMARK  217  A    between atoms: _508  and  _511
REMARK  218  A    between atoms: _511  and  _512
REMARK  219  A    between atoms: _512  and  _513
REMARK  220  A    between atoms: _513  and  _514
REMARK  221  A    between atoms: _523  and  _525
REMARK  222  A    between atoms: _525  and  _526
REMARK  223  A    between atoms: _525  and  _528
REMARK  224  A    between atoms: _528  and  _529
REMARK  225  A    between atoms: _532  and  _534
REMARK  226  A    between atoms: _534  and  _535
REMARK  227  A    between atoms: _534  and  _537
REMARK  228  A    between atoms: _537  and  _538
REMARK  229  A    between atoms: _541  and  _543
REMARK  230  A    between atoms: _543  and  _544
REMARK  231  A    between atoms: _543  and  _546
REMARK  232  A    between atoms: _546  and  _547
REMARK  233  A    between atoms: _549  and  _551
REMARK  234  A    between atoms: _551  and  _552
REMARK  235  A    between atoms: _551  and  _554
REMARK  236  A    between atoms: _554  and  _555
REMARK  237  A    between atoms: _560  and  _562
REMARK  238  A    between atoms: _562  and  _563
REMARK  239  A    between atoms: _562  and  _565
REMARK  240  A    between atoms: _565  and  _566
REMARK  241  A    between atoms: _569  and  _571
REMARK  242  A    between atoms: _571  and  _572
REMARK  243  A    between atoms: _571  and  _574
REMARK  244  A    between atoms: _577  and  _579
REMARK  245  A    between atoms: _579  and  _580
REMARK  246  A    between atoms: _579  and  _582
REMARK  247  A    between atoms: _585  and  _587
REMARK  248  A    between atoms: _587  and  _588
REMARK  249  A    between atoms: _587  and  _590
REMARK  250  A    between atoms: _590  and  _591
REMARK  251  A    between atoms: _591  and  _592
REMARK  252  A    between atoms: _592  and  _593
REMARK  253  A    between atoms: _593  and  _594
REMARK  254  A    between atoms: _598  and  _600
REMARK  255  A    between atoms: _600  and  _601
REMARK  256  A    between atoms: _600  and  _603
REMARK  257  A    between atoms: _603  and  _604
REMARK  258  A    between atoms: _604  and  _605
REMARK  259  A    between atoms: _605  and  _606
REMARK  260  A    between atoms: _606  and  _607
REMARK  261  A    between atoms: _611  and  _613
REMARK  262  A    between atoms: _613  and  _614
REMARK  263  A    between atoms: _613  and  _616
REMARK  264  A    between atoms: _616  and  _617
REMARK  265  A    between atoms: _620  and  _622
REMARK  266  A    between atoms: _622  and  _623
REMARK  267  A    between atoms: _622  and  _625
REMARK  268  A    between atoms: _625  and  _626
REMARK  269  A    between atoms: _629  and  _631
REMARK  270  A    between atoms: _631  and  _632
REMARK  271  A    between atoms: _631  and  _634
REMARK  272  A    between atoms: _634  and  _635
REMARK  273  A    between atoms: _638  and  _640
REMARK  274  A    between atoms: _640  and  _641
REMARK  275  A    between atoms: _640  and  _643
REMARK  276  A    between atoms: _643  and  _644
REMARK  277  A    between atoms: _650  and  _652
REMARK  278  A    between atoms: _652  and  _653
REMARK  279  A    between atoms: _655  and  _657
REMARK  280  A    between atoms: _657  and  _658
REMARK  281  A    between atoms: _657  and  _660
REMARK  282  A    between atoms: _660  and  _661
REMARK  283  A    between atoms: _664  and  _666
REMARK  284  A    between atoms: _666  and  _667
REMARK  285  A    between atoms: _670  and  _672
REMARK  286  A    between atoms: _672  and  _673
REMARK  287  A    between atoms: _672  and  _675
REMARK  288  A    between atoms: _675  and  _676
REMARK  289  A    between atoms: _676  and  _677
REMARK  290  A    between atoms: _679  and  _681
REMARK  291  A    between atoms: _681  and  _682
REMARK  292  A    between atoms: _681  and  _684
REMARK  293  A    between atoms: _684  and  _685
REMARK  294  A    between atoms: _685  and  _686
REMARK  295  A    between atoms: _688  and  _690
REMARK  296  A    between atoms: _690  and  _691
REMARK  297  A    between atoms: _690  and  _693
REMARK  298  A    between atoms: _693  and  _694
REMARK  299  A    between atoms: _697  and  _699
REMARK  300  A    between atoms: _699  and  _700
REMARK  301  A    between atoms: _699  and  _702
REMARK  302  A    between atoms: _702  and  _703
REMARK  303  A    between atoms: _706  and  _708
REMARK  304  A    between atoms: _708  and  _709
REMARK  305  A    between atoms: _708  and  _711
REMARK  306  A    between atoms: _711  and  _712
REMARK  307  A    between atoms: _712  and  _713
REMARK                            x       y       z     vdW  Elec       q    Type
REMARK                         _______ _______ _______ _____ _____    ______ ____
ROOT
ATOM      1  CA  ALA A   1      53.987  43.953  -4.926  0.00  0.00    +0.133 C 
ATOM      2  CB  ALA A   1      54.308  44.948  -3.809  0.00  0.00    +0.027 C 
ENDROOT
BRANCH   1   3
ATOM      3  N   ALA A   1      52.651  44.211  -5.459  0.00  0.00    -0.239 NA
ATOM      4  H   ALA A   1      51.924  44.594  -4.821  0.00  0.00    +0.142 HD
ENDBRANCH   1   3
BRANCH   1   5
ATOM      5  C   ALA A   1      54.189  42.511  -4.424  0.00  0.00    +0.224 C 
ATOM      6  O   ALA A   1      55.209  42.212  -3.808  0.00  0.00    -0.287 OA
ENDBRANCH   1   5
TORSDOF 2
REMARK  Name = ../refined-set-2016/3npc/3npc_pocket.pdb
REMARK  307 active torsions:
REMARK  status: ('A' for Active; 'I' for Inactive)
REMARK    1  A    between atoms: _1  and  _3
REMARK    2  A    between atoms: _3  and  _4
REMARK    3  A    between atoms: _3  and  _6
REMARK    4  A    between atoms: _6  and  _7
REMARK    5  A    between atoms: _10  and  _12
REMARK    6  A    between atoms: _12  and  _13
REMARK    7  A    between atoms: _15  and  _17
REMARK    8  A    between atoms: _17  and  _18
REMARK    9  A    between atoms: _17  and  _20
REMARK   10  A    between atoms: _20  and  _21
REMARK   11  A    between atoms: _21  and  _22
REMARK   12  A    between atoms: _27  and  _29
REMARK   13  A    between atoms: _29  and  _30
REMARK   14  A    between atoms: _29  and  _32
REMARK   15  A    between atoms: _32  and  _33
REMARK   16  A    between atoms: _36  and  _38
REMARK   17  A    between atoms: _38  and  _39
REMARK   18  A    between atoms: _38  and  _41
REMARK   19  A    between atoms: _44  and  _46
REMARK   20  A    between atoms: _46  and  _47
REMARK   21  A    between atoms: _46  and  _49
REMARK   22  A    between atoms: _51  and  _53
REMARK   23  A    between atoms: _53  and  _54
REMARK   24  A    between atoms: _57  and  _59
REMARK   25  A    between atoms: _59  and  _60
REMARK   26  A    between atoms: _59  and  _62
REMARK   27  A    between atoms: _62  and  _63
REMARK   28  A    between atoms: _68  and  _70
REMARK   29  A    between atoms: _70  and  _71
REMARK   30  A    between atoms: _70  and  _73
REMARK   31  A    between atoms: _76  and  _78
REMARK   32  A    between atoms: _78  and  _79
REMARK   33  A    between atoms: _82  and  _84
REMARK   34  A    between atoms: _84  and  _85
REMARK   35  A    between atoms: _84  and  _87
REMARK   36  A    between atoms: _90  and  _92
REMARK   37  A    between atoms: _92  and  _93
REMARK   38  A    between atoms: _92  and  _95
REMARK   39  A    between atoms: _95  and  _96
REMARK   40  A    between atoms: _96  and  _97
REMARK   41  A    between atoms: _97  and  _98
REMARK   42  A    between atoms: _98  and  _99
REMARK   43  A    between atoms: _103  and  _105
REMARK   44  A    between atoms: _105  and  _106
REMARK   45  A    between atoms: _105  and  _108
REMARK   46  A    between atoms: _108  and  _109
REMARK   47  A    between atoms: _109  and  _110
REMARK   48  A    between atoms: _110  and  _111
REMARK   49  A    between atoms: _111  and  _112
REMARK   50  A    between atoms: _116  and  _118
REMARK   51  A    between atoms: _118  and  _119
REMARK   52  A    between atoms: _118  and  _121
REMARK   53  A    between atoms: _121  and  _122
REMARK   54  A    between atoms: _125  and  _127
REMARK   55  A    between atoms: _127  and  _128
REMARK   56  A    between atoms: _127  and  _130
REMARK   57  A    between atoms: _130  and  _131
REMARK   58  A    between atoms: _134  and  _136
REMARK   59  A    between atoms: _136  and  _137
REMARK   60  A    between atoms: _136  and  _139
REMARK   61  A    between atoms: _139  and  _140
REMARK   62  A    between atoms: _145  and  _147
REMARK   63  A    between atoms: _147  and  _148
REMARK   64  A    between atoms: _147  and  _150
REMARK   65  A    between atoms: _150  and  _151
REMARK   66  A    between atoms: _151  and  _152
REMARK   67  A    between atoms: _152  and  _153
REMARK   68  A    between atoms: _153  and  _154
REMARK   69  A    between atoms: _158  and  _160
REMARK   70  A    between atoms: _160  and  _161
REMARK   71  A    between atoms: _160  and  _163
REMARK   72  A    between atoms: _163  and  _164
REMARK   73  A    between atoms: _164  and  _165
REMARK   74  A    between atoms: _165  and  _166
REMARK   75  A    between atoms: _175  and  _177
REMARK   76  A    between atoms: _177  and  _178
REMARK   77  A    between atoms: _181  and  _183
REMARK   78  A    between atoms: _183  and  _184
REMARK   79  A    between atoms: _183  and  _186
REMARK   80  A    between atoms: _186  and  _187
REMARK   81  A    between atoms: _192  and  _193
REMARK   82  A    between atoms: _195  and  _197
REMARK   83  A    between atoms: _197  and  _198
REMARK   84  A    between atoms: _197  and  _200
REMARK   85  A    between atoms: _200  and  _201
REMARK   86  A    between atoms: _201  and  _202
REMARK   87  A    between atoms: _202  and  _203
REMARK   88  A    between atoms: _212  and  _214
REMARK   89  A    between atoms: _214  and  _215
REMARK   90  A    between atoms: _214  and  _217
REMARK   91  A    between atoms: _217  and  _218
REMARK   92  A    between atoms: _218  and  _219
REMARK   93  A    between atoms: _222  and  _224
REMARK   94  A    between atoms: _224  and  _225
REMARK   95  A    between atoms: _224  and  _227
REMARK   96  A    between atoms: _227  and  _228
REMARK   97  A    between atoms: _231  and  _233
REMARK   98  A    between atoms: _233  and  _234
REMARK   99  A    between atoms: _233  and  _236
REMARK  100  A    between atoms: _239  and  _241
REMARK  101  A    between atoms: _241  and  _242
REMARK  102  A    between atoms: _241  and  _244
REMARK  103  A    between atoms: _244  and  _245
REMARK  104  A    between atoms: _248  and  _250
REMARK  105  A    between atoms: _250  and  _251
REMARK  106  A    between atoms: _250  and  _253
REMARK  107  A    between atoms: _253  and  _254
REMARK  108  A    between atoms: _257  and  _259
REMARK  109  A    between atoms: _259  and  _260
REMARK  110  A    between atoms: _259  and  _262
REMARK  111  A    between atoms: _262  and  _263
REMARK  112  A    between atoms: _263  and  _264
REMARK  113  A    between atoms: _264  and  _265
REMARK  114  A    between atoms: _265  and  _266
REMARK  115  A    between atoms: _270  and  _272
REMARK  116  A    between atoms: _272  and  _273
REMARK  117  A    between atoms: _272  and  _275
REMARK  118  A    between atoms: _277  and  _279
REMARK  119  A    between atoms: _279  and  _280
REMARK  120  A    between atoms: _279  and  _282
REMARK  121  A    between atoms: _285  and  _287
REMARK  122  A    between atoms: _287  and  _288
REMARK  123  A    between atoms: _287  and  _290
REMARK  124  A    between atoms: _290  and  _291
REMARK  125  A    between atoms: _296  and  _298
REMARK  126  A    between atoms: _298  and  _299
REMARK  127  A    between atoms: _298  and  _301
REMARK  128  A    between atoms: _301  and  _302
REMARK  129  A    between atoms: _305  and  _307
REMARK  130  A    between atoms: _307  and  _308
REMARK  131  A    between atoms: _307  and  _310
REMARK  132  A    between atoms: _310  and  _311
REMARK  133  A    between atoms: _314  and  _316
REMARK  134  A    between atoms: _316  and  _317
REMARK  135  A    between atoms: _316  and  _319
REMARK  136  A    between atoms: _319  and  _320
REMARK  137  A    between atoms: _322  and  _324
REMARK  138  A    between atoms: _324  and  _325
REMARK  139  A    between atoms: _324  and  _327
REMARK  140  A    between atoms: _327  and  _328
REMARK  141  A    between atoms: _331  and  _333
REMARK  142  A    between atoms: _333  and  _334
REMARK  143  A    between atoms: _333  and  _336
REMARK  144  A    between atoms: _336  and  _337
REMARK  145  A    between atoms: _340  and  _342
REMARK  146  A    between atoms: _342  and  _343
REMARK  147  A    between atoms: _342  and  _345
REMARK  148  A    between atoms: _345  and  _346
REMARK  149  A    between atoms: _351  and  _353
REMARK  150  A    between atoms: _353  and  _354
REMARK  151  A    between atoms: _353  and  _356
REMARK  152  A    between atoms: _356  and  _357
REMARK  153  A    between atoms: _362  and  _363
REMARK  154  A    between atoms: _365  and  _367
REMARK  155  A    between atoms: _367  and  _368
REMARK  156  A    between atoms: _367  and  _370
REMARK  157  A    between atoms: _370  and  _371
REMARK  158  A    between atoms: _374  and  _376
REMARK  159  A    between atoms: _376  and  _377
REMARK  160  A    between atoms: _376  and  _379
REMARK  161  A    between atoms: _382  and  _384
REMARK  162  A    between atoms: _384  and  _385
REMARK  163  A    between atoms: _384  and  _387
REMARK  164  A    between atoms: _387  and  _388
REMARK  165  A    between atoms: _388  and  _389
REMARK  166  A    between atoms: _391  and  _393
REMARK  167  A    between atoms: _393  and  _394
REMARK  168  A    between atoms: _393  and  _396
REMARK  169  A    between atoms: _396  and  _397
REMARK  170  A    between atoms: _397  and  _398
REMARK  171  A    between atoms: _401  and  _403
REMARK  172  A    between atoms: _403  and  _404
REMARK  173  A    between atoms: _403  and  _406
REMARK  174  A    between atoms: _406  and  _407
REMARK  175  A    between atoms: _410  and  _412
REMARK  176  A    between atoms: _412  and  _413
REMARK  177  A    between atoms: _412  and  _415
REMARK  178  A    between atoms: _415  and  _416
REMARK  179  A    between atoms: _416  and  _417
REMARK  180  A    between atoms: _419  and  _421
REMARK  181  A    between atoms: _421  and  _422
REMARK  182  A    between atoms: _421  and  _424
REMARK  183  A    between atoms: _424  and  _425
REMARK  184  A    between atoms: _428  and  _430
REMARK  185  A    between atoms: _430  and  _431
REMARK  186  A    between atoms: _434  and  _436
REMARK  187  A    between atoms: _436  and  _437
REMARK  188  A    between atoms: _436  and  _439
REMARK  189  A    between atoms: _439  and  _440
REMARK  190  A    between atoms: _445  and  _447
REMARK  191  A    between atoms: _447  and  _448
REMARK  192  A    between atoms: _447  and  _450
REMARK  193  A    between atoms: _450  and  _451
REMARK  194  A    between atoms: _451  and  _452
REMARK  195  A    between atoms: _457  and  _459
REMARK  196  A    between atoms: _459  and  _460
REMARK  197  A    between atoms: _462  and  _464
REMARK  198  A    between atoms: _464  and  _465
REMARK  199  A    between atoms: _464  and  _467
REMARK  200  A    between atoms: _467  and  _468
REMARK  201  A    between atoms: _471  and  _473
REMARK  202  A    between atoms: _473  and  _474
REMARK  203  A    between atoms: _477  and  _479
REMARK  204  A    between atoms: _479  and  _480
REMARK  205  A    between atoms: _479  and  _482
REMARK  206  A    between atoms: _482  and  _483
REMARK  207  A    between atoms: _486  and  _488
REMARK  208  A    between atoms: _488  and  _489
REMARK  209  A    between atoms: _488  and  _491
REMARK  210  A    between atoms: _491  and  _492
REMARK  211  A    between atoms: _495  and  _497
REMARK  212  A    between atoms: _497  and  _498
REMARK  213  A    between atoms: _497  and  _500
REMARK  214  A    between atoms: _500  and  _501
REMARK  215  A    between atoms: _506  and  _508
REMARK  216  A    between atoms: _508  and  _509
REMARK  217  A    between atoms: _508  and  _511
REMARK  218  A    between atoms: _511  and  _512
REMARK  219  A    between atoms: _512  and  _513
REMARK  220  A    between atoms: _513  and  _514
REMARK  221  A    between atoms: _523  and  _525
REMARK  222  A    between atoms: _525  and  _526
REMARK  223  A    between atoms: _525  and  _528
REMARK  224  A    between atoms: _528  and  _529
REMARK  225  A    between atoms: _532  and  _534
REMARK  226  A    between atoms: _534  and  _535
REMARK  227  A    between atoms: _534  and  _537
REMARK  228  A    between atoms: _537  and  _538
REMARK  229  A    between atoms: _541  and  _543
REMARK  230  A    between atoms: _543  and  _544
REMARK  231  A    between atoms: _543  and  _546
REMARK  232  A    between atoms: _546  and  _547
REMARK  233  A    between atoms: _549  and  _551
REMARK  234  A    between atoms: _551  and  _552
REMARK  235  A    between atoms: _551  and  _554
REMARK  236  A    between atoms: _554  and  _555
REMARK  237  A    between atoms: _560  and  _562
REMARK  238  A    between atoms: _562  and  _563
REMARK  239  A    between atoms: _562  and  _565
REMARK  240  A    between atoms: _565  and  _566
REMARK  241  A    between atoms: _569  and  _571
REMARK  242  A    between atoms: _571  and  _572
REMARK  243  A    between atoms: _571  and  _574
REMARK  244  A    between atoms: _577  and  _579
REMARK  245  A    between atoms: _579  and  _580
REMARK  246  A    between atoms: _579  and  _582
REMARK  247  A    between atoms: _585  and  _587
REMARK  248  A    between atoms: _587  and  _588
REMARK  249  A    between atoms: _587  and  _590
REMARK  250  A    between atoms: _590  and  _591
REMARK  251  A    between atoms: _591  and  _592
REMARK  252  A    between atoms: _592  and  _593
REMARK  253  A    between atoms: _593  and  _594
REMARK  254  A    between atoms: _598  and  _600
REMARK  255  A    between atoms: _600  and  _601
REMARK  256  A    between atoms: _600  and  _603
REMARK  257  A    between atoms: _603  and  _604
REMARK  258  A    between atoms: _604  and  _605
REMARK  259  A    between atoms: _605  and  _606
REMARK  260  A    between atoms: _606  and  _607
REMARK  261  A    between atoms: _611  and  _613
REMARK  262  A    between atoms: _613  and  _614
REMARK  263  A    between atoms: _613  and  _616
REMARK  264  A    between atoms: _616  and  _617
REMARK  265  A    between atoms: _620  and  _622
REMARK  266  A    between atoms: _622  and  _623
REMARK  267  A    between atoms: _622  and  _625
REMARK  268  A    between atoms: _625  and  _626
REMARK  269  A    between atoms: _629  and  _631
REMARK  270  A    between atoms: _631  and  _632
REMARK  271  A    between atoms: _631  and  _634
REMARK  272  A    between atoms: _634  and  _635
REMARK  273  A    between atoms: _638  and  _640
REMARK  274  A    between atoms: _640  and  _641
REMARK  275  A    between atoms: _640  and  _643
REMARK  276  A    between atoms: _643  and  _644
REMARK  277  A    between atoms: _650  and  _652
REMARK  278  A    between atoms: _652  and  _653
REMARK  279  A    between atoms: _655  and  _657
REMARK  280  A    between atoms: _657  and  _658
REMARK  281  A    between atoms: _657  and  _660
REMARK  282  A    between atoms: _660  and  _661
REMARK  283  A    between atoms: _664  and  _666
REMARK  284  A    between atoms: _666  and  _667
REMARK  285  A    between atoms: _670  and  _672
REMARK  286  A    between atoms: _672  and  _673
REMARK  287  A    between atoms: _672  and  _675
REMARK  288  A    between atoms: _675  and  _676
REMARK  289  A    between atoms: _676  and  _677
REMARK  290  A    between atoms: _679  and  _681
REMARK  291  A    between atoms: _681  and  _682
REMARK  292  A    between atoms: _681  and  _684
REMARK  293  A    between atoms: _684  and  _685
REMARK  294  A    between atoms: _685  and  _686
REMARK  295  A    between atoms: _688  and  _690
REMARK  296  A    between atoms: _690  and  _691
REMARK  297  A    between atoms: _690  and  _693
REMARK  298  A    between atoms: _693  and  _694
REMARK  299  A    between atoms: _697  and  _699
REMARK  300  A    between atoms: _699  and  _700
REMARK  301  A    between atoms: _699  and  _702
REMARK  302  A    between atoms: _702  and  _703
REMARK  303  A    between atoms: _706  and  _708
REMARK  304  A    between atoms: _708  and  _709
REMARK  305  A    between atoms: _708  and  _711
REMARK  306  A    between atoms: _711  and  _712
REMARK  307  A    between atoms: _712  and  _713
REMARK                            x       y       z     vdW  Elec       q    Type
REMARK                         _______ _______ _______ _____ _____    ______ ____
ROOT
ATOM      1  CA  ARG A   4      46.909  38.199   5.955  0.00  0.00    +0.149 C 
ENDROOT
BRANCH   1   4
ATOM      2  C   HIS A   3      48.438  40.007   5.265  0.00  0.00    +0.241 C 
ATOM      3  O   HIS A   3      49.247  39.778   6.163  0.00  0.00    -0.273 OA
ATOM      4  N   ARG A   4      47.313  39.312   5.090  0.00  0.00    -0.297 N 
ATOM      5  H   ARG A   4      46.690  39.573   4.299  0.00  0.00    +0.150 HD
BRANCH   2   6
ATOM      6  CA  HIS A   3      48.699  41.121   4.265  0.00  0.00    +0.155 C 
BRANCH   6   9
ATOM      7  C   ILE A   2      49.402  39.695   2.448  0.00  0.00    +0.241 C 
ATOM      8  O   ILE A   2      50.254  39.155   3.157  0.00  0.00    -0.273 OA
ATOM      9  N   HIS A   3      48.576  40.630   2.903  0.00  0.00    -0.297 N 
ATOM     10  H   HIS A   3      47.836  41.013   2.280  0.00  0.00    +0.150 HD
BRANCH   7  11
ATOM     11  CA  ILE A   2      49.270  39.334   0.969  0.00  0.00    +0.148 C 
BRANCH  11  13
ATOM     12  C   ILE A   1      50.896  40.665  -0.246  0.00  0.00    +0.238 C 
ATOM     13  N   ILE A   2      50.580  39.542   0.382  0.00  0.00    -0.297 N 
ATOM     14  H   ILE A   2      51.292  38.788   0.456  0.00  0.00    +0.150 HD
ATOM     15  O   ILE A   1      50.063  41.529  -0.546  0.00  0.00    -0.274 OA
BRANCH  12  16
ATOM     16  CA  ILE A   1      52.372  40.819  -0.607  0.00  0.00    +0.145 C 
BRANCH  16  17
ATOM     17  N   ILE A   1      52.534  40.895  -2.052  0.00  0.00    -0.238 NA
ATOM     18  H   ILE A   1      52.099  41.691  -2.562  0.00  0.00    +0.142 HD
ENDBRANCH  16  17
BRANCH  16  19
ATOM     19  CB  ILE A   1      52.943  42.069   0.100  0.00  0.00    +0.025 C 
ATOM     20  CG2 ILE A   1      52.752  41.965   1.610  0.00  0.00    +0.002 C 
BRANCH  19  21
ATOM     21  CG1 ILE A   1      54.427  42.271  -0.248  0.00  0.00    +0.002 C 
ATOM     22  CD1 ILE A   1      54.939  43.705   0.001  0.00  0.00    +0.000 C 
ENDBRANCH  19  21
ENDBRANCH  16  19
ENDBRANCH  12  16
ENDBRANCH  11  13
BRANCH  11  23
ATOM     23  CB  ILE A   2      48.775  37.883   0.785  0.00  0.00    +0.027 C 
ATOM     24  CG2 ILE A   2      47.409  37.708   1.411  0.00  0.00    +0.002 C 
BRANCH  23  25
ATOM     25  CG1 ILE A   2      48.733  37.511  -0.705  0.00  0.00    +0.002 C 
ATOM     26  CD1 ILE A   2      48.615  36.012  -0.971  0.00  0.00    +0.000 C 
ENDBRANCH  23  25
ENDBRANCH  11  23
ENDBRANCH   7  11
ENDBRANCH   6   9
BRANCH   6  27
ATOM     27  CB  HIS A   3      47.764  42.300   4.506  0.00  0.00    +0.076 C 
BRANCH  27  28
ATOM     28  CG  HIS A   3      48.093  43.083   5.735  0.00  0.00    +0.082 A 
ATOM     29  ND1 HIS A   3      47.952  42.568   7.004  0.00  0.00    -0.227 NA
ATOM     30  CE1 HIS A   3      48.316  43.478   7.890  0.00  0.00    +0.199 A 
ATOM     31  NE2 HIS A   3      48.679  44.568   7.240  0.00  0.00    -0.221 NA
ATOM     32  CD2 HIS A   3      48.551  44.348   5.891  0.00  0.00    +0.115 A 
ENDBRANCH  27  28
ENDBRANCH   6  27
ENDBRANCH   2   6
ENDBRANCH   1   4
BRANCH   1  33
ATOM     33  C   ARG A   4      46.346  38.624   7.320  0.00  0.00    +0.241 C 
ATOM     34  O   ARG A   4      45.663  37.831   7.980  0.00  0.00    -0.273 OA
ATOM     35  N   ASP A   5      46.640  39.853   7.744  0.00  0.00    -0.297 N 
ATOM     36  H   ASP A   5      47.136  40.502   7.100  0.00  0.00    +0.150 HD
BRANCH  35  37
ATOM     37  CA  ASP A   5      46.285  40.321   9.095  0.00  0.00    +0.160 C 
BRANCH  37  38
ATOM     38  C   ASP A   5      45.600  41.670   9.040  0.00  0.00    +0.241 C 
ATOM     39  O   ASP A   5      45.862  42.548   9.863  0.00  0.00    -0.273 OA
ATOM     40  N   LEU A   6      44.743  41.851   8.043  0.00  0.00    -0.298 N 
ATOM     41  H   LEU A   6      44.622  41.109   7.324  0.00  0.00    +0.150 HD
BRANCH  40  42
ATOM     42  CA  LEU A   6      43.977  43.074   7.951  0.00  0.00    +0.137 C 
BRANCH  42  43
ATOM     43  C   LEU A   6      42.883  43.022   8.989  0.00  0.00    +0.227 C 
ATOM     44  O   LEU A   6      42.001  42.174   8.936  0.00  0.00    -0.286 OA
ENDBRANCH  42  43
BRANCH  42  45
ATOM     45  CB  LEU A   6      43.378  43.265   6.566  0.00  0.00    +0.028 C 
BRANCH  45  46
ATOM     46  CG  LEU A   6      44.179  44.060   5.552  0.00  0.00    +0.002 C 
ATOM     47  CD2 LEU A   6      44.407  45.518   6.006  0.00  0.00    +0.000 C 
ATOM     48  CD1 LEU A   6      43.434  43.995   4.231  0.00  0.00    +0.000 C 
ENDBRANCH  45  46
ENDBRANCH  42  45
ENDBRANCH  40  42
ENDBRANCH  37  38
BRANCH  37  49
ATOM     49  CB  ASP A   5      47.533  40.431   9.978  0.00  0.00    +0.143 C 
BRANCH  49  50
ATOM     50  CG  ASP A   5      47.893  39.125  10.659  0.00  0.00    +0.367 C 
ATOM     51  OD2 ASP A   5      47.379  38.869  11.772  0.00  0.00    -0.246 OA
ATOM     52  OD1 ASP A   5      48.717  38.361  10.093  0.00  0.00    -0.246 OA
ENDBRANCH  49  50
ENDBRANCH  37  49
ENDBRANCH  35  37
ENDBRANCH   1  33
BRANCH   1  53
ATOM     53  CB  ARG A   4      48.061  37.202   6.167  0.00  0.00    +0.033 C 
BRANCH  53  54
ATOM     54  CG  ARG A   4      48.501  36.439   4.921  0.00  0.00    +0.045 C 
BRANCH  54  55
ATOM     55  CD  ARG A   4      49.584  35.401   5.268  0.00  0.00    +0.174 C 
BRANCH  55  56
ATOM     56  NE  ARG A   4      49.166  34.525   6.375  0.00  0.00    -0.265 N 
ATOM     57  CZ  ARG A   4      49.875  33.501   6.861  0.00  0.00    +0.342 C 
ATOM     58  NH2 ARG A   4      49.391  32.784   7.873  0.00  0.00    -0.292 N 
ATOM     59 HH21 ARG A   4      48.465  33.021   8.282  0.00  0.00    +0.255 HD
ATOM     60 HH22 ARG A   4      49.939  31.987   8.254  0.00  0.00    +0.255 HD
ATOM     61  NH1 ARG A   4      51.058  33.181   6.340  0.00  0.00    -0.292 N 
ATOM     62 HH11 ARG A   4      51.598  32.382   6.729  0.00  0.00    +0.255 HD
ATOM     63 HH12 ARG A   4      51.442  33.730   5.545  0.00  0.00    +0.255 HD
ATOM     64  HE  ARG A   4      48.244  34.719   6.815  0.00  0.00    +0.259 HD
ENDBRANCH  55  56
ENDBRANCH  54  55
ENDBRANCH  53  54
ENDBRANCH   1  53
TORSDOF 26
REMARK  Name = ../refined-set-2016/3npc/3npc_pocket.pdb
REMARK  307 active torsions:
REMARK  status: ('A' for Active; 'I' for Inactive)
REMARK    1  A    between atoms: _1  and  _3
REMARK    2  A    between atoms: _3  and  _4
REMARK    3  A    between atoms: _3  and  _6
REMARK    4  A    between atoms: _6  and  _7
REMARK    5  A    between atoms: _10  and  _12
REMARK    6  A    between atoms: _12  and  _13
REMARK    7  A    between atoms: _15  and  _17
REMARK    8  A    between atoms: _17  and  _18
REMARK    9  A    between atoms: _17  and  _20
REMARK   10  A    between atoms: _20  and  _21
REMARK   11  A    between atoms: _21  and  _22
REMARK   12  A    between atoms: _27  and  _29
REMARK   13  A    between atoms: _29  and  _30
REMARK   14  A    between atoms: _29  and  _32
REMARK   15  A    between atoms: _32  and  _33
REMARK   16  A    between atoms: _36  and  _38
REMARK   17  A    between atoms: _38  and  _39
REMARK   18  A    between atoms: _38  and  _41
REMARK   19  A    between atoms: _44  and  _46
REMARK   20  A    between atoms: _46  and  _47
REMARK   21  A    between atoms: _46  and  _49
REMARK   22  A    between atoms: _51  and  _53
REMARK   23  A    between atoms: _53  and  _54
REMARK   24  A    between atoms: _57  and  _59
REMARK   25  A    between atoms: _59  and  _60
REMARK   26  A    between atoms: _59  and  _62
REMARK   27  A    between atoms: _62  and  _63
REMARK   28  A    between atoms: _68  and  _70
REMARK   29  A    between atoms: _70  and  _71
REMARK   30  A    between atoms: _70  and  _73
REMARK   31  A    between atoms: _76  and  _78
REMARK   32  A    between atoms: _78  and  _79
REMARK   33  A    between atoms: _82  and  _84
REMARK   34  A    between atoms: _84  and  _85
REMARK   35  A    between atoms: _84  and  _87
REMARK   36  A    between atoms: _90  and  _92
REMARK   37  A    between atoms: _92  and  _93
REMARK   38  A    between atoms: _92  and  _95
REMARK   39  A    between atoms: _95  and  _96
REMARK   40  A    between atoms: _96  and  _97
REMARK   41  A    between atoms: _97  and  _98
REMARK   42  A    between atoms: _98  and  _99
REMARK   43  A    between atoms: _103  and  _105
REMARK   44  A    between atoms: _105  and  _106
REMARK   45  A    between atoms: _105  and  _108
REMARK   46  A    between atoms: _108  and  _109
REMARK   47  A    between atoms: _109  and  _110
REMARK   48  A    between atoms: _110  and  _111
REMARK   49  A    between atoms: _111  and  _112
REMARK   50  A    between atoms: _116  and  _118
REMARK   51  A    between atoms: _118  and  _119
REMARK   52  A    between atoms: _118  and  _121
REMARK   53  A    between atoms: _121  and  _122
REMARK   54  A    between atoms: _125  and  _127
REMARK   55  A    between atoms: _127  and  _128
REMARK   56  A    between atoms: _127  and  _130
REMARK   57  A    between atoms: _130  and  _131
REMARK   58  A    between atoms: _134  and  _136
REMARK   59  A    between atoms: _136  and  _137
REMARK   60  A    between atoms: _136  and  _139
REMARK   61  A    between atoms: _139  and  _140
REMARK   62  A    between atoms: _145  and  _147
REMARK   63  A    between atoms: _147  and  _148
REMARK   64  A    between atoms: _147  and  _150
REMARK   65  A    between atoms: _150  and  _151
REMARK   66  A    between atoms: _151  and  _152
REMARK   67  A    between atoms: _152  and  _153
REMARK   68  A    between atoms: _153  and  _154
REMARK   69  A    between atoms: _158  and  _160
REMARK   70  A    between atoms: _160  and  _161
REMARK   71  A    between atoms: _160  and  _163
REMARK   72  A    between atoms: _163  and  _164
REMARK   73  A    between atoms: _164  and  _165
REMARK   74  A    between atoms: _165  and  _166
REMARK   75  A    between atoms: _175  and  _177
REMARK   76  A    between atoms: _177  and  _178
REMARK   77  A    between atoms: _181  and  _183
REMARK   78  A    between atoms: _183  and  _184
REMARK   79  A    between atoms: _183  and  _186
REMARK   80  A    between atoms: _186  and  _187
REMARK   81  A    between atoms: _192  and  _193
REMARK   82  A    between atoms: _195  and  _197
REMARK   83  A    between atoms: _197  and  _198
REMARK   84  A    between atoms: _197  and  _200
REMARK   85  A    between atoms: _200  and  _201
REMARK   86  A    between atoms: _201  and  _202
REMARK   87  A    between atoms: _202  and  _203
REMARK   88  A    between atoms: _212  and  _214
REMARK   89  A    between atoms: _214  and  _215
REMARK   90  A    between atoms: _214  and  _217
REMARK   91  A    between atoms: _217  and  _218
REMARK   92  A    between atoms: _218  and  _219
REMARK   93  A    between atoms: _222  and  _224
REMARK   94  A    between atoms: _224  and  _225
REMARK   95  A    between atoms: _224  and  _227
REMARK   96  A    between atoms: _227  and  _228
REMARK   97  A    between atoms: _231  and  _233
REMARK   98  A    between atoms: _233  and  _234
REMARK   99  A    between atoms: _233  and  _236
REMARK  100  A    between atoms: _239  and  _241
REMARK  101  A    between atoms: _241  and  _242
REMARK  102  A    between atoms: _241  and  _244
REMARK  103  A    between atoms: _244  and  _245
REMARK  104  A    between atoms: _248  and  _250
REMARK  105  A    between atoms: _250  and  _251
REMARK  106  A    between atoms: _250  and  _253
REMARK  107  A    between atoms: _253  and  _254
REMARK  108  A    between atoms: _257  and  _259
REMARK  109  A    between atoms: _259  and  _260
REMARK  110  A    between atoms: _259  and  _262
REMARK  111  A    between atoms: _262  and  _263
REMARK  112  A    between atoms: _263  and  _264
REMARK  113  A    between atoms: _264  and  _265
REMARK  114  A    between atoms: _265  and  _266
REMARK  115  A    between atoms: _270  and  _272
REMARK  116  A    between atoms: _272  and  _273
REMARK  117  A    between atoms: _272  and  _275
REMARK  118  A    between atoms: _277  and  _279
REMARK  119  A    between atoms: _279  and  _280
REMARK  120  A    between atoms: _279  and  _282
REMARK  121  A    between atoms: _285  and  _287
REMARK  122  A    between atoms: _287  and  _288
REMARK  123  A    between atoms: _287  and  _290
REMARK  124  A    between atoms: _290  and  _291
REMARK  125  A    between atoms: _296  and  _298
REMARK  126  A    between atoms: _298  and  _299
REMARK  127  A    between atoms: _298  and  _301
REMARK  128  A    between atoms: _301  and  _302
REMARK  129  A    between atoms: _305  and  _307
REMARK  130  A    between atoms: _307  and  _308
REMARK  131  A    between atoms: _307  and  _310
REMARK  132  A    between atoms: _310  and  _311
REMARK  133  A    between atoms: _314  and  _316
REMARK  134  A    between atoms: _316  and  _317
REMARK  135  A    between atoms: _316  and  _319
REMARK  136  A    between atoms: _319  and  _320
REMARK  137  A    between atoms: _322  and  _324
REMARK  138  A    between atoms: _324  and  _325
REMARK  139  A    between atoms: _324  and  _327
REMARK  140  A    between atoms: _327  and  _328
REMARK  141  A    between atoms: _331  and  _333
REMARK  142  A    between atoms: _333  and  _334
REMARK  143  A    between atoms: _333  and  _336
REMARK  144  A    between atoms: _336  and  _337
REMARK  145  A    between atoms: _340  and  _342
REMARK  146  A    between atoms: _342  and  _343
REMARK  147  A    between atoms: _342  and  _345
REMARK  148  A    between atoms: _345  and  _346
REMARK  149  A    between atoms: _351  and  _353
REMARK  150  A    between atoms: _353  and  _354
REMARK  151  A    between atoms: _353  and  _356
REMARK  152  A    between atoms: _356  and  _357
REMARK  153  A    between atoms: _362  and  _363
REMARK  154  A    between atoms: _365  and  _367
REMARK  155  A    between atoms: _367  and  _368
REMARK  156  A    between atoms: _367  and  _370
REMARK  157  A    between atoms: _370  and  _371
REMARK  158  A    between atoms: _374  and  _376
REMARK  159  A    between atoms: _376  and  _377
REMARK  160  A    between atoms: _376  and  _379
REMARK  161  A    between atoms: _382  and  _384
REMARK  162  A    between atoms: _384  and  _385
REMARK  163  A    between atoms: _384  and  _387
REMARK  164  A    between atoms: _387  and  _388
REMARK  165  A    between atoms: _388  and  _389
REMARK  166  A    between atoms: _391  and  _393
REMARK  167  A    between atoms: _393  and  _394
REMARK  168  A    between atoms: _393  and  _396
REMARK  169  A    between atoms: _396  and  _397
REMARK  170  A    between atoms: _397  and  _398
REMARK  171  A    between atoms: _401  and  _403
REMARK  172  A    between atoms: _403  and  _404
REMARK  173  A    between atoms: _403  and  _406
REMARK  174  A    between atoms: _406  and  _407
REMARK  175  A    between atoms: _410  and  _412
REMARK  176  A    between atoms: _412  and  _413
REMARK  177  A    between atoms: _412  and  _415
REMARK  178  A    between atoms: _415  and  _416
REMARK  179  A    between atoms: _416  and  _417
REMARK  180  A    between atoms: _419  and  _421
REMARK  181  A    between atoms: _421  and  _422
REMARK  182  A    between atoms: _421  and  _424
REMARK  183  A    between atoms: _424  and  _425
REMARK  184  A    between atoms: _428  and  _430
REMARK  185  A    between atoms: _430  and  _431
REMARK  186  A    between atoms: _434  and  _436
REMARK  187  A    between atoms: _436  and  _437
REMARK  188  A    between atoms: _436  and  _439
REMARK  189  A    between atoms: _439  and  _440
REMARK  190  A    between atoms: _445  and  _447
REMARK  191  A    between atoms: _447  and  _448
REMARK  192  A    between atoms: _447  and  _450
REMARK  193  A    between atoms: _450  and  _451
REMARK  194  A    between atoms: _451  and  _452
REMARK  195  A    between atoms: _457  and  _459
REMARK  196  A    between atoms: _459  and  _460
REMARK  197  A    between atoms: _462  and  _464
REMARK  198  A    between atoms: _464  and  _465
REMARK  199  A    between atoms: _464  and  _467
REMARK  200  A    between atoms: _467  and  _468
REMARK  201  A    between atoms: _471  and  _473
REMARK  202  A    between atoms: _473  and  _474
REMARK  203  A    between atoms: _477  and  _479
REMARK  204  A    between atoms: _479  and  _480
REMARK  205  A    between atoms: _479  and  _482
REMARK  206  A    between atoms: _482  and  _483
REMARK  207  A    between atoms: _486  and  _488
REMARK  208  A    between atoms: _488  and  _489
REMARK  209  A    between atoms: _488  and  _491
REMARK  210  A    between atoms: _491  and  _492
REMARK  211  A    between atoms: _495  and  _497
REMARK  212  A    between atoms: _497  and  _498
REMARK  213  A    between atoms: _497  and  _500
REMARK  214  A    between atoms: _500  and  _501
REMARK  215  A    between atoms: _506  and  _508
REMARK  216  A    between atoms: _508  and  _509
REMARK  217  A    between atoms: _508  and  _511
REMARK  218  A    between atoms: _511  and  _512
REMARK  219  A    between atoms: _512  and  _513
REMARK  220  A    between atoms: _513  and  _514
REMARK  221  A    between atoms: _523  and  _525
REMARK  222  A    between atoms: _525  and  _526
REMARK  223  A    between atoms: _525  and  _528
REMARK  224  A    between atoms: _528  and  _529
REMARK  225  A    between atoms: _532  and  _534
REMARK  226  A    between atoms: _534  and  _535
REMARK  227  A    between atoms: _534  and  _537
REMARK  228  A    between atoms: _537  and  _538
REMARK  229  A    between atoms: _541  and  _543
REMARK  230  A    between atoms: _543  and  _544
REMARK  231  A    between atoms: _543  and  _546
REMARK  232  A    between atoms: _546  and  _547
REMARK  233  A    between atoms: _549  and  _551
REMARK  234  A    between atoms: _551  and  _552
REMARK  235  A    between atoms: _551  and  _554
REMARK  236  A    between atoms: _554  and  _555
REMARK  237  A    between atoms: _560  and  _562
REMARK  238  A    between atoms: _562  and  _563
REMARK  239  A    between atoms: _562  and  _565
REMARK  240  A    between atoms: _565  and  _566
REMARK  241  A    between atoms: _569  and  _571
REMARK  242  A    between atoms: _571  and  _572
REMARK  243  A    between atoms: _571  and  _574
REMARK  244  A    between atoms: _577  and  _579
REMARK  245  A    between atoms: _579  and  _580
REMARK  246  A    between atoms: _579  and  _582
REMARK  247  A    between atoms: _585  and  _587
REMARK  248  A    between atoms: _587  and  _588
REMARK  249  A    between atoms: _587  and  _590
REMARK  250  A    between atoms: _590  and  _591
REMARK  251  A    between atoms: _591  and  _592
REMARK  252  A    between atoms: _592  and  _593
REMARK  253  A    between atoms: _593  and  _594
REMARK  254  A    between atoms: _598  and  _600
REMARK  255  A    between atoms: _600  and  _601
REMARK  256  A    between atoms: _600  and  _603
REMARK  257  A    between atoms: _603  and  _604
REMARK  258  A    between atoms: _604  and  _605
REMARK  259  A    between atoms: _605  and  _606
REMARK  260  A    between atoms: _606  and  _607
REMARK  261  A    between atoms: _611  and  _613
REMARK  262  A    between atoms: _613  and  _614
REMARK  263  A    between atoms: _613  and  _616
REMARK  264  A    between atoms: _616  and  _617
REMARK  265  A    between atoms: _620  and  _622
REMARK  266  A    between atoms: _622  and  _623
REMARK  267  A    between atoms: _622  and  _625
REMARK  268  A    between atoms: _625  and  _626
REMARK  269  A    between atoms: _629  and  _631
REMARK  270  A    between atoms: _631  and  _632
REMARK  271  A    between atoms: _631  and  _634
REMARK  272  A    between atoms: _634  and  _635
REMARK  273  A    between atoms: _638  and  _640
REMARK  274  A    between atoms: _640  and  _641
REMARK  275  A    between atoms: _640  and  _643
REMARK  276  A    between atoms: _643  and  _644
REMARK  277  A    between atoms: _650  and  _652
REMARK  278  A    between atoms: _652  and  _653
REMARK  279  A    between atoms: _655  and  _657
REMARK  280  A    between atoms: _657  and  _658
REMARK  281  A    between atoms: _657  and  _660
REMARK  282  A    between atoms: _660  and  _661
REMARK  283  A    between atoms: _664  and  _666
REMARK  284  A    between atoms: _666  and  _667
REMARK  285  A    between atoms: _670  and  _672
REMARK  286  A    between atoms: _672  and  _673
REMARK  287  A    between atoms: _672  and  _675
REMARK  288  A    between atoms: _675  and  _676
REMARK  289  A    between atoms: _676  and  _677
REMARK  290  A    between atoms: _679  and  _681
REMARK  291  A    between atoms: _681  and  _682
REMARK  292  A    between atoms: _681  and  _684
REMARK  293  A    between atoms: _684  and  _685
REMARK  294  A    between atoms: _685  and  _686
REMARK  295  A    between atoms: _688  and  _690
REMARK  296  A    between atoms: _690  and  _691
REMARK  297  A    between atoms: _690  and  _693
REMARK  298  A    between atoms: _693  and  _694
REMARK  299  A    between atoms: _697  and  _699
REMARK  300  A    between atoms: _699  and  _700
REMARK  301  A    between atoms: _699  and  _702
REMARK  302  A    between atoms: _702  and  _703
REMARK  303  A    between atoms: _706  and  _708
REMARK  304  A    between atoms: _708  and  _709
REMARK  305  A    between atoms: _708  and  _711
REMARK  306  A    between atoms: _711  and  _712
REMARK  307  A    between atoms: _712  and  _713
REMARK                            x       y       z     vdW  Elec       q    Type
REMARK                         _______ _______ _______ _____ _____    ______ ____
ROOT
ATOM      1  C   ILE A   3      44.721  51.679  10.814  0.00  0.00    +0.241 C 
ATOM      2  O   ILE A   3      43.978  51.789  11.800  0.00  0.00    -0.273 OA
ATOM      3  N   VAL A   4      45.538  52.640  10.388  0.00  0.00    -0.297 N 
ATOM      4  H   VAL A   4      46.096  52.481   9.525  0.00  0.00    +0.150 HD
ENDROOT
BRANCH   3   5
ATOM      5  CA  VAL A   4      45.676  53.917  11.098  0.00  0.00    +0.149 C 
BRANCH   5   6
ATOM      6  C   VAL A   4      45.141  55.109  10.296  0.00  0.00    +0.241 C 
ATOM      7  N   VAL A   5      44.610  56.100  11.009  0.00  0.00    -0.297 N 
ATOM      8  H   VAL A   5      44.687  56.076  12.046  0.00  0.00    +0.150 HD
ATOM      9  O   VAL A   4      45.207  55.126   9.064  0.00  0.00    -0.273 OA
BRANCH   7  10
ATOM     10  CA  VAL A   5      43.924  57.217  10.372  0.00  0.00    +0.149 C 
BRANCH  10  11
ATOM     11  C   VAL A   5      44.350  58.588  10.927  0.00  0.00    +0.241 C 
ATOM     12  O   VAL A   5      44.870  58.697  12.047  0.00  0.00    -0.273 OA
ATOM     13  N   LYS A   6      44.156  59.619  10.112  0.00  0.00    -0.298 N 
ATOM     14  H   LYS A   6      43.882  59.436   9.126  0.00  0.00    +0.150 HD
BRANCH  13  15
ATOM     15  CA  LYS A   6      44.315  60.995  10.555  0.00  0.00    +0.137 C 
BRANCH  15  16
ATOM     16  C   LYS A   6      42.971  61.705  10.548  0.00  0.00    +0.227 C 
ATOM     17  O   LYS A   6      41.996  61.201   9.999  0.00  0.00    -0.286 OA
ENDBRANCH  15  16
BRANCH  15  18
ATOM     18  CB  LYS A   6      45.319  61.754   9.682  0.00  0.00    +0.028 C 
BRANCH  18  19
ATOM     19  CG  LYS A   6      46.757  61.369   9.931  0.00  0.00    -0.000 C 
BRANCH  19  20
ATOM     20  CD  LYS A   6      47.706  62.514   9.627  0.00  0.00    -0.024 C 
BRANCH  20  21
ATOM     21  CE  LYS A   6      48.081  62.557   8.162  0.00  0.00    -0.086 C 
BRANCH  21  22
ATOM     22  NZ  LYS A   6      49.213  63.501   7.959  0.00  0.00    +0.380 N 
ATOM     23  HZ1 LYS A   6      50.032  63.183   8.515  0.00  0.00    -0.089 HD
ATOM     24  HZ2 LYS A   6      48.930  64.452   8.270  0.00  0.00    -0.089 HD
ATOM     25  HZ3 LYS A   6      49.466  63.526   6.950  0.00  0.00    -0.089 HD
ENDBRANCH  21  22
ENDBRANCH  20  21
ENDBRANCH  19  20
ENDBRANCH  18  19
ENDBRANCH  15  18
ENDBRANCH  13  15
ENDBRANCH  10  11
BRANCH  10  26
ATOM     26  CB  VAL A   5      42.365  57.063  10.442  0.00  0.00    +0.027 C 
ATOM     27  CG2 VAL A   5      41.908  56.821  11.857  0.00  0.00    +0.002 C 
ATOM     28  CG1 VAL A   5      41.862  55.939   9.515  0.00  0.00    +0.002 C 
ENDBRANCH  10  26
ENDBRANCH   7  10
ENDBRANCH   5   6
BRANCH   5  29
ATOM     29  CB  VAL A   4      47.150  54.174  11.597  0.00  0.00    +0.027 C 
ATOM     30  CG2 VAL A   4      47.505  53.208  12.710  0.00  0.00    +0.002 C 
ATOM     31  CG1 VAL A   4      48.154  54.069  10.453  0.00  0.00    +0.002 C 
ENDBRANCH   5  29
ENDBRANCH   3   5
BRANCH   1  32
ATOM     32  CA  ILE A   3      44.729  50.404  10.008  0.00  0.00    +0.149 C 
BRANCH  32  34
ATOM     33  C   ASN A   2      46.102  48.497  10.630  0.00  0.00    +0.241 C 
ATOM     34  N   ILE A   3      45.093  49.317  10.897  0.00  0.00    -0.297 N 
ATOM     35  H   ILE A   3      44.547  49.176  11.771  0.00  0.00    +0.150 HD
ATOM     36  O   ASN A   2      46.796  48.591   9.616  0.00  0.00    -0.273 OA
BRANCH  33  37
ATOM     37  CA  ASN A   2      46.366  47.407  11.659  0.00  0.00    +0.158 C 
BRANCH  37  40
ATOM     38  C   SER A   1      45.324  47.832  13.840  0.00  0.00    +0.241 C 
ATOM     39  O   SER A   1      46.305  48.457  14.244  0.00  0.00    -0.274 OA
ATOM     40  N   ASN A   2      45.275  47.257  12.638  0.00  0.00    -0.297 N 
ATOM     41  H   ASN A   2      44.443  46.687  12.384  0.00  0.00    +0.150 HD
BRANCH  38  42
ATOM     42  CA  SER A   1      44.075  47.716  14.717  0.00  0.00    +0.174 C 
BRANCH  42  43
ATOM     43  N   SER A   1      42.915  47.216  13.977  0.00  0.00    -0.236 NA
ATOM     44  H   SER A   1      42.623  46.222  14.070  0.00  0.00    +0.142 HD
ENDBRANCH  42  43
BRANCH  42  45
ATOM     45  CB  SER A   1      44.347  46.899  15.983  0.00  0.00    +0.163 C 
BRANCH  45  46
ATOM     46  OG  SER A   1      44.632  45.550  15.680  0.00  0.00    -0.380 OA
ATOM     47  H   SER A   1      45.433  45.505  15.101  0.00  0.00    +0.211 HD
ENDBRANCH  45  46
ENDBRANCH  42  45
ENDBRANCH  38  42
ENDBRANCH  37  40
BRANCH  37  48
ATOM     48  CB  ASN A   2      46.670  46.082  10.965  0.00  0.00    +0.114 C 
BRANCH  48  49
ATOM     49  CG  ASN A   2      47.607  45.208  11.775  0.00  0.00    +0.222 C 
ATOM     50  OD1 ASN A   2      48.415  45.704  12.572  0.00  0.00    -0.275 OA
ATOM     51  ND2 ASN A   2      47.516  43.904  11.569  0.00  0.00    -0.329 N 
ATOM     52 HD21 ASN A   2      48.138  43.251  12.087  0.00  0.00    +0.145 HD
ATOM     53 HD22 ASN A   2      46.822  43.532  10.890  0.00  0.00    +0.145 HD
ENDBRANCH  48  49
ENDBRANCH  37  48
ENDBRANCH  33  37
ENDBRANCH  32  34
BRANCH  32  54
ATOM     54  CB  ILE A   3      43.341  50.188   9.385  0.00  0.00    +0.027 C 
ATOM     55  CG2 ILE A   3      42.898  51.435   8.644  0.00  0.00    +0.002 C 
BRANCH  54  56
ATOM     56  CG1 ILE A   3      43.356  48.976   8.447  0.00  0.00    +0.002 C 
ATOM     57  CD1 ILE A   3      41.984  48.417   8.142  0.00  0.00    +0.000 C 
ENDBRANCH  54  56
ENDBRANCH  32  54
ENDBRANCH   1  32
TORSDOF 25
REMARK  Name = ../refined-set-2016/3npc/3npc_pocket.pdb
REMARK  307 active torsions:
REMARK  status: ('A' for Active; 'I' for Inactive)
REMARK    1  A    between atoms: _1  and  _3
REMARK    2  A    between atoms: _3  and  _4
REMARK    3  A    between atoms: _3  and  _6
REMARK    4  A    between atoms: _6  and  _7
REMARK    5  A    between atoms: _10  and  _12
REMARK    6  A    between atoms: _12  and  _13
REMARK    7  A    between atoms: _15  and  _17
REMARK    8  A    between atoms: _17  and  _18
REMARK    9  A    between atoms: _17  and  _20
REMARK   10  A    between atoms: _20  and  _21
REMARK   11  A    between atoms: _21  and  _22
REMARK   12  A    between atoms: _27  and  _29
REMARK   13  A    between atoms: _29  and  _30
REMARK   14  A    between atoms: _29  and  _32
REMARK   15  A    between atoms: _32  and  _33
REMARK   16  A    between atoms: _36  and  _38
REMARK   17  A    between atoms: _38  and  _39
REMARK   18  A    between atoms: _38  and  _41
REMARK   19  A    between atoms: _44  and  _46
REMARK   20  A    between atoms: _46  and  _47
REMARK   21  A    between atoms: _46  and  _49
REMARK   22  A    between atoms: _51  and  _53
REMARK   23  A    between atoms: _53  and  _54
REMARK   24  A    between atoms: _57  and  _59
REMARK   25  A    between atoms: _59  and  _60
REMARK   26  A    between atoms: _59  and  _62
REMARK   27  A    between atoms: _62  and  _63
REMARK   28  A    between atoms: _68  and  _70
REMARK   29  A    between atoms: _70  and  _71
REMARK   30  A    between atoms: _70  and  _73
REMARK   31  A    between atoms: _76  and  _78
REMARK   32  A    between atoms: _78  and  _79
REMARK   33  A    between atoms: _82  and  _84
REMARK   34  A    between atoms: _84  and  _85
REMARK   35  A    between atoms: _84  and  _87
REMARK   36  A    between atoms: _90  and  _92
REMARK   37  A    between atoms: _92  and  _93
REMARK   38  A    between atoms: _92  and  _95
REMARK   39  A    between atoms: _95  and  _96
REMARK   40  A    between atoms: _96  and  _97
REMARK   41  A    between atoms: _97  and  _98
REMARK   42  A    between atoms: _98  and  _99
REMARK   43  A    between atoms: _103  and  _105
REMARK   44  A    between atoms: _105  and  _106
REMARK   45  A    between atoms: _105  and  _108
REMARK   46  A    between atoms: _108  and  _109
REMARK   47  A    between atoms: _109  and  _110
REMARK   48  A    between atoms: _110  and  _111
REMARK   49  A    between atoms: _111  and  _112
REMARK   50  A    between atoms: _116  and  _118
REMARK   51  A    between atoms: _118  and  _119
REMARK   52  A    between atoms: _118  and  _121
REMARK   53  A    between atoms: _121  and  _122
REMARK   54  A    between atoms: _125  and  _127
REMARK   55  A    between atoms: _127  and  _128
REMARK   56  A    between atoms: _127  and  _130
REMARK   57  A    between atoms: _130  and  _131
REMARK   58  A    between atoms: _134  and  _136
REMARK   59  A    between atoms: _136  and  _137
REMARK   60  A    between atoms: _136  and  _139
REMARK   61  A    between atoms: _139  and  _140
REMARK   62  A    between atoms: _145  and  _147
REMARK   63  A    between atoms: _147  and  _148
REMARK   64  A    between atoms: _147  and  _150
REMARK   65  A    between atoms: _150  and  _151
REMARK   66  A    between atoms: _151  and  _152
REMARK   67  A    between atoms: _152  and  _153
REMARK   68  A    between atoms: _153  and  _154
REMARK   69  A    between atoms: _158  and  _160
REMARK   70  A    between atoms: _160  and  _161
REMARK   71  A    between atoms: _160  and  _163
REMARK   72  A    between atoms: _163  and  _164
REMARK   73  A    between atoms: _164  and  _165
REMARK   74  A    between atoms: _165  and  _166
REMARK   75  A    between atoms: _175  and  _177
REMARK   76  A    between atoms: _177  and  _178
REMARK   77  A    between atoms: _181  and  _183
REMARK   78  A    between atoms: _183  and  _184
REMARK   79  A    between atoms: _183  and  _186
REMARK   80  A    between atoms: _186  and  _187
REMARK   81  A    between atoms: _192  and  _193
REMARK   82  A    between atoms: _195  and  _197
REMARK   83  A    between atoms: _197  and  _198
REMARK   84  A    between atoms: _197  and  _200
REMARK   85  A    between atoms: _200  and  _201
REMARK   86  A    between atoms: _201  and  _202
REMARK   87  A    between atoms: _202  and  _203
REMARK   88  A    between atoms: _212  and  _214
REMARK   89  A    between atoms: _214  and  _215
REMARK   90  A    between atoms: _214  and  _217
REMARK   91  A    between atoms: _217  and  _218
REMARK   92  A    between atoms: _218  and  _219
REMARK   93  A    between atoms: _222  and  _224
REMARK   94  A    between atoms: _224  and  _225
REMARK   95  A    between atoms: _224  and  _227
REMARK   96  A    between atoms: _227  and  _228
REMARK   97  A    between atoms: _231  and  _233
REMARK   98  A    between atoms: _233  and  _234
REMARK   99  A    between atoms: _233  and  _236
REMARK  100  A    between atoms: _239  and  _241
REMARK  101  A    between atoms: _241  and  _242
REMARK  102  A    between atoms: _241  and  _244
REMARK  103  A    between atoms: _244  and  _245
REMARK  104  A    between atoms: _248  and  _250
REMARK  105  A    between atoms: _250  and  _251
REMARK  106  A    between atoms: _250  and  _253
REMARK  107  A    between atoms: _253  and  _254
REMARK  108  A    between atoms: _257  and  _259
REMARK  109  A    between atoms: _259  and  _260
REMARK  110  A    between atoms: _259  and  _262
REMARK  111  A    between atoms: _262  and  _263
REMARK  112  A    between atoms: _263  and  _264
REMARK  113  A    between atoms: _264  and  _265
REMARK  114  A    between atoms: _265  and  _266
REMARK  115  A    between atoms: _270  and  _272
REMARK  116  A    between atoms: _272  and  _273
REMARK  117  A    between atoms: _272  and  _275
REMARK  118  A    between atoms: _277  and  _279
REMARK  119  A    between atoms: _279  and  _280
REMARK  120  A    between atoms: _279  and  _282
REMARK  121  A    between atoms: _285  and  _287
REMARK  122  A    between atoms: _287  and  _288
REMARK  123  A    between atoms: _287  and  _290
REMARK  124  A    between atoms: _290  and  _291
REMARK  125  A    between atoms: _296  and  _298
REMARK  126  A    between atoms: _298  and  _299
REMARK  127  A    between atoms: _298  and  _301
REMARK  128  A    between atoms: _301  and  _302
REMARK  129  A    between atoms: _305  and  _307
REMARK  130  A    between atoms: _307  and  _308
REMARK  131  A    between atoms: _307  and  _310
REMARK  132  A    between atoms: _310  and  _311
REMARK  133  A    between atoms: _314  and  _316
REMARK  134  A    between atoms: _316  and  _317
REMARK  135  A    between atoms: _316  and  _319
REMARK  136  A    between atoms: _319  and  _320
REMARK  137  A    between atoms: _322  and  _324
REMARK  138  A    between atoms: _324  and  _325
REMARK  139  A    between atoms: _324  and  _327
REMARK  140  A    between atoms: _327  and  _328
REMARK  141  A    between atoms: _331  and  _333
REMARK  142  A    between atoms: _333  and  _334
REMARK  143  A    between atoms: _333  and  _336
REMARK  144  A    between atoms: _336  and  _337
REMARK  145  A    between atoms: _340  and  _342
REMARK  146  A    between atoms: _342  and  _343
REMARK  147  A    between atoms: _342  and  _345
REMARK  148  A    between atoms: _345  and  _346
REMARK  149  A    between atoms: _351  and  _353
REMARK  150  A    between atoms: _353  and  _354
REMARK  151  A    between atoms: _353  and  _356
REMARK  152  A    between atoms: _356  and  _357
REMARK  153  A    between atoms: _362  and  _363
REMARK  154  A    between atoms: _365  and  _367
REMARK  155  A    between atoms: _367  and  _368
REMARK  156  A    between atoms: _367  and  _370
REMARK  157  A    between atoms: _370  and  _371
REMARK  158  A    between atoms: _374  and  _376
REMARK  159  A    between atoms: _376  and  _377
REMARK  160  A    between atoms: _376  and  _379
REMARK  161  A    between atoms: _382  and  _384
REMARK  162  A    between atoms: _384  and  _385
REMARK  163  A    between atoms: _384  and  _387
REMARK  164  A    between atoms: _387  and  _388
REMARK  165  A    between atoms: _388  and  _389
REMARK  166  A    between atoms: _391  and  _393
REMARK  167  A    between atoms: _393  and  _394
REMARK  168  A    between atoms: _393  and  _396
REMARK  169  A    between atoms: _396  and  _397
REMARK  170  A    between atoms: _397  and  _398
REMARK  171  A    between atoms: _401  and  _403
REMARK  172  A    between atoms: _403  and  _404
REMARK  173  A    between atoms: _403  and  _406
REMARK  174  A    between atoms: _406  and  _407
REMARK  175  A    between atoms: _410  and  _412
REMARK  176  A    between atoms: _412  and  _413
REMARK  177  A    between atoms: _412  and  _415
REMARK  178  A    between atoms: _415  and  _416
REMARK  179  A    between atoms: _416  and  _417
REMARK  180  A    between atoms: _419  and  _421
REMARK  181  A    between atoms: _421  and  _422
REMARK  182  A    between atoms: _421  and  _424
REMARK  183  A    between atoms: _424  and  _425
REMARK  184  A    between atoms: _428  and  _430
REMARK  185  A    between atoms: _430  and  _431
REMARK  186  A    between atoms: _434  and  _436
REMARK  187  A    between atoms: _436  and  _437
REMARK  188  A    between atoms: _436  and  _439
REMARK  189  A    between atoms: _439  and  _440
REMARK  190  A    between atoms: _445  and  _447
REMARK  191  A    between atoms: _447  and  _448
REMARK  192  A    between atoms: _447  and  _450
REMARK  193  A    between atoms: _450  and  _451
REMARK  194  A    between atoms: _451  and  _452
REMARK  195  A    between atoms: _457  and  _459
REMARK  196  A    between atoms: _459  and  _460
REMARK  197  A    between atoms: _462  and  _464
REMARK  198  A    between atoms: _464  and  _465
REMARK  199  A    between atoms: _464  and  _467
REMARK  200  A    between atoms: _467  and  _468
REMARK  201  A    between atoms: _471  and  _473
REMARK  202  A    between atoms: _473  and  _474
REMARK  203  A    between atoms: _477  and  _479
REMARK  204  A    between atoms: _479  and  _480
REMARK  205  A    between atoms: _479  and  _482
REMARK  206  A    between atoms: _482  and  _483
REMARK  207  A    between atoms: _486  and  _488
REMARK  208  A    between atoms: _488  and  _489
REMARK  209  A    between atoms: _488  and  _491
REMARK  210  A    between atoms: _491  and  _492
REMARK  211  A    between atoms: _495  and  _497
REMARK  212  A    between atoms: _497  and  _498
REMARK  213  A    between atoms: _497  and  _500
REMARK  214  A    between atoms: _500  and  _501
REMARK  215  A    between atoms: _506  and  _508
REMARK  216  A    between atoms: _508  and  _509
REMARK  217  A    between atoms: _508  and  _511
REMARK  218  A    between atoms: _511  and  _512
REMARK  219  A    between atoms: _512  and  _513
REMARK  220  A    between atoms: _513  and  _514
REMARK  221  A    between atoms: _523  and  _525
REMARK  222  A    between atoms: _525  and  _526
REMARK  223  A    between atoms: _525  and  _528
REMARK  224  A    between atoms: _528  and  _529
REMARK  225  A    between atoms: _532  and  _534
REMARK  226  A    between atoms: _534  and  _535
REMARK  227  A    between atoms: _534  and  _537
REMARK  228  A    between atoms: _537  and  _538
REMARK  229  A    between atoms: _541  and  _543
REMARK  230  A    between atoms: _543  and  _544
REMARK  231  A    between atoms: _543  and  _546
REMARK  232  A    between atoms: _546  and  _547
REMARK  233  A    between atoms: _549  and  _551
REMARK  234  A    between atoms: _551  and  _552
REMARK  235  A    between atoms: _551  and  _554
REMARK  236  A    between atoms: _554  and  _555
REMARK  237  A    between atoms: _560  and  _562
REMARK  238  A    between atoms: _562  and  _563
REMARK  239  A    between atoms: _562  and  _565
REMARK  240  A    between atoms: _565  and  _566
REMARK  241  A    between atoms: _569  and  _571
REMARK  242  A    between atoms: _571  and  _572
REMARK  243  A    between atoms: _571  and  _574
REMARK  244  A    between atoms: _577  and  _579
REMARK  245  A    between atoms: _579  and  _580
REMARK  246  A    between atoms: _579  and  _582
REMARK  247  A    between atoms: _585  and  _587
REMARK  248  A    between atoms: _587  and  _588
REMARK  249  A    between atoms: _587  and  _590
REMARK  250  A    between atoms: _590  and  _591
REMARK  251  A    between atoms: _591  and  _592
REMARK  252  A    between atoms: _592  and  _593
REMARK  253  A    between atoms: _593  and  _594
REMARK  254  A    between atoms: _598  and  _600
REMARK  255  A    between atoms: _600  and  _601
REMARK  256  A    between atoms: _600  and  _603
REMARK  257  A    between atoms: _603  and  _604
REMARK  258  A    between atoms: _604  and  _605
REMARK  259  A    between atoms: _605  and  _606
REMARK  260  A    between atoms: _606  and  _607
REMARK  261  A    between atoms: _611  and  _613
REMARK  262  A    between atoms: _613  and  _614
REMARK  263  A    between atoms: _613  and  _616
REMARK  264  A    between atoms: _616  and  _617
REMARK  265  A    between atoms: _620  and  _622
REMARK  266  A    between atoms: _622  and  _623
REMARK  267  A    between atoms: _622  and  _625
REMARK  268  A    between atoms: _625  and  _626
REMARK  269  A    between atoms: _629  and  _631
REMARK  270  A    between atoms: _631  and  _632
REMARK  271  A    between atoms: _631  and  _634
REMARK  272  A    between atoms: _634  and  _635
REMARK  273  A    between atoms: _638  and  _640
REMARK  274  A    between atoms: _640  and  _641
REMARK  275  A    between atoms: _640  and  _643
REMARK  276  A    between atoms: _643  and  _644
REMARK  277  A    between atoms: _650  and  _652
REMARK  278  A    between atoms: _652  and  _653
REMARK  279  A    between atoms: _655  and  _657
REMARK  280  A    between atoms: _657  and  _658
REMARK  281  A    between atoms: _657  and  _660
REMARK  282  A    between atoms: _660  and  _661
REMARK  283  A    between atoms: _664  and  _666
REMARK  284  A    between atoms: _666  and  _667
REMARK  285  A    between atoms: _670  and  _672
REMARK  286  A    between atoms: _672  and  _673
REMARK  287  A    between atoms: _672  and  _675
REMARK  288  A    between atoms: _675  and  _676
REMARK  289  A    between atoms: _676  and  _677
REMARK  290  A    between atoms: _679  and  _681
REMARK  291  A    between atoms: _681  and  _682
REMARK  292  A    between atoms: _681  and  _684
REMARK  293  A    between atoms: _684  and  _685
REMARK  294  A    between atoms: _685  and  _686
REMARK  295  A    between atoms: _688  and  _690
REMARK  296  A    between atoms: _690  and  _691
REMARK  297  A    between atoms: _690  and  _693
REMARK  298  A    between atoms: _693  and  _694
REMARK  299  A    between atoms: _697  and  _699
REMARK  300  A    between atoms: _699  and  _700
REMARK  301  A    between atoms: _699  and  _702
REMARK  302  A    between atoms: _702  and  _703
REMARK  303  A    between atoms: _706  and  _708
REMARK  304  A    between atoms: _708  and  _709
REMARK  305  A    between atoms: _708  and  _711
REMARK  306  A    between atoms: _711  and  _712
REMARK  307  A    between atoms: _712  and  _713
REMARK                            x       y       z     vdW  Elec       q    Type
REMARK                         _______ _______ _______ _____ _____    ______ ____
ROOT
ATOM      1  CA  ASP A   4      51.382  45.518  10.537  0.00  0.00    +0.160 C 
ENDROOT
BRANCH   1   2
ATOM      2  C   ASP A   4      52.065  45.664  11.898  0.00  0.00    +0.241 C 
ATOM      3  N   PHE A   5      51.247  45.804  12.944  0.00  0.00    -0.297 N 
ATOM      4  H   PHE A   5      50.225  45.687  12.792  0.00  0.00    +0.150 HD
ATOM      5  O   ASP A   4      53.294  45.642  11.994  0.00  0.00    -0.273 OA
BRANCH   3   6
ATOM      6  CA  PHE A   5      51.718  46.114  14.293  0.00  0.00    +0.153 C 
BRANCH   6   7
ATOM      7  C   PHE A   5      51.918  44.848  15.123  0.00  0.00    +0.241 C 
ATOM      8  O   PHE A   5      51.767  44.867  16.342  0.00  0.00    -0.273 OA
ATOM      9  N   GLY A   6      52.254  43.746  14.464  0.00  0.00    -0.295 N 
ATOM     10  H   GLY A   6      52.217  43.744  13.425  0.00  0.00    +0.150 HD
BRANCH   9  11
ATOM     11  CA  GLY A   6      52.673  42.540  15.165  0.00  0.00    +0.176 C 
BRANCH  11  12
ATOM     12  C   GLY A   6      54.043  42.751  15.785  0.00  0.00    +0.243 C 
ATOM     13  N   LEU A   7      54.123  42.552  17.104  0.00  0.00    -0.297 N 
ATOM     14  H   LEU A   7      53.270  42.267  17.627  0.00  0.00    +0.150 HD
ATOM     15  O   GLY A   6      55.010  43.113  15.088  0.00  0.00    -0.273 OA
BRANCH  13  16
ATOM     16  CA  LEU A   7      55.386  42.726  17.834  0.00  0.00    +0.149 C 
BRANCH  16  17
ATOM     17  C   LEU A   7      55.793  41.461  18.596  0.00  0.00    +0.241 C 
ATOM     18  O   LEU A   7      56.648  41.518  19.475  0.00  0.00    -0.273 OA
ATOM     19  N   ALA A   8      55.205  40.323  18.219  0.00  0.00    -0.298 N 
ATOM     20  H   ALA A   8      54.588  40.339  17.382  0.00  0.00    +0.150 HD
BRANCH  19  21
ATOM     21  CA  ALA A   8      55.387  39.054  18.926  0.00  0.00    +0.137 C 
ATOM     22  CB  ALA A   8      56.736  38.417  18.565  0.00  0.00    +0.030 C 
BRANCH  21  23
ATOM     23  C   ALA A   8      55.256  39.276  20.441  0.00  0.00    +0.227 C 
ATOM     24  O   ALA A   8      56.222  39.133  21.200  0.00  0.00    -0.286 OA
ENDBRANCH  21  23
ENDBRANCH  19  21
ENDBRANCH  16  17
BRANCH  16  25
ATOM     25  CB  LEU A   7      55.336  43.933  18.791  0.00  0.00    +0.029 C 
BRANCH  25  26
ATOM     26  CG  LEU A   7      55.018  45.358  18.315  0.00  0.00    +0.002 C 
ATOM     27  CD2 LEU A   7      54.731  46.240  19.520  0.00  0.00    +0.000 C 
ATOM     28  CD1 LEU A   7      56.144  45.960  17.476  0.00  0.00    +0.000 C 
ENDBRANCH  25  26
ENDBRANCH  16  25
ENDBRANCH  13  16
ENDBRANCH  11  12
ENDBRANCH   9  11
ENDBRANCH   6   7
BRANCH   6  29
ATOM     29  CB  PHE A   5      50.722  47.068  14.980  0.00  0.00    +0.055 C 
BRANCH  29  30
ATOM     30  CG  PHE A   5      51.304  47.883  16.120  0.00  0.00    -0.020 A 
ATOM     31  CD2 PHE A   5      50.480  48.758  16.841  0.00  0.00    -0.004 A 
ATOM     32  CE2 PHE A   5      50.985  49.534  17.892  0.00  0.00    -0.000 A 
ATOM     33  CZ  PHE A   5      52.328  49.455  18.214  0.00  0.00    -0.000 A 
ATOM     34  CE1 PHE A   5      53.174  48.594  17.489  0.00  0.00    -0.000 A 
ATOM     35  CD1 PHE A   5      52.660  47.817  16.451  0.00  0.00    -0.004 A 
ENDBRANCH  29  30
ENDBRANCH   6  29
ENDBRANCH   3   6
ENDBRANCH   1   2
BRANCH   1  37
ATOM     36  C   LEU A   3      50.396  47.245   9.142  0.00  0.00    +0.241 C 
ATOM     37  N   ASP A   4      51.445  46.782   9.815  0.00  0.00    -0.297 N 
ATOM     38  H   ASP A   4      52.327  47.333   9.826  0.00  0.00    +0.150 HD
ATOM     39  O   LEU A   3      49.370  46.585   8.971  0.00  0.00    -0.273 OA
BRANCH  36  40
ATOM     40  CA  LEU A   3      50.514  48.651   8.558  0.00  0.00    +0.149 C 
BRANCH  40  42
ATOM     41  C   ILE A   2      49.136  49.777   6.866  0.00  0.00    +0.241 C 
ATOM     42  N   LEU A   3      49.235  49.094   8.008  0.00  0.00    -0.297 N 
ATOM     43  H   LEU A   3      48.364  48.867   8.529  0.00  0.00    +0.150 HD
ATOM     44  O   ILE A   2      50.118  50.195   6.237  0.00  0.00    -0.273 OA
BRANCH  41  45
ATOM     45  CA  ILE A   2      47.713  50.042   6.361  0.00  0.00    +0.148 C 
BRANCH  45  48
ATOM     46  C   LYS A   1      47.174  52.419   6.674  0.00  0.00    +0.238 C 
ATOM     47  O   LYS A   1      46.679  52.257   7.775  0.00  0.00    -0.274 OA
ATOM     48  N   ILE A   2      47.621  51.427   5.916  0.00  0.00    -0.297 N 
ATOM     49  H   ILE A   2      47.924  51.650   4.946  0.00  0.00    +0.150 HD
BRANCH  46  50
ATOM     50  CA  LYS A   1      47.322  53.806   6.089  0.00  0.00    +0.145 C 
BRANCH  50  51
ATOM     51  N   LYS A   1      46.194  54.657   6.472  0.00  0.00    -0.238 NA
ATOM     52  H   LYS A   1      45.856  54.633   7.455  0.00  0.00    +0.142 HD
ENDBRANCH  50  51
BRANCH  50  53
ATOM     53  CB  LYS A   1      48.660  54.391   6.547  0.00  0.00    +0.026 C 
BRANCH  53  54
ATOM     54  CG  LYS A   1      49.154  55.565   5.744  0.00  0.00    -0.000 C 
BRANCH  54  55
ATOM     55  CD  LYS A   1      50.423  56.121   6.358  0.00  0.00    -0.024 C 
BRANCH  55  56
ATOM     56  CE  LYS A   1      50.587  57.604   6.063  0.00  0.00    -0.086 C 
BRANCH  56  57
ATOM     57  NZ  LYS A   1      50.710  57.827   4.598  0.00  0.00    +0.380 N 
ATOM     58  HZ1 LYS A   1      50.821  58.844   4.412  0.00  0.00    -0.089 HD
ATOM     59  HZ2 LYS A   1      51.541  57.314   4.239  0.00  0.00    -0.089 HD
ATOM     60  HZ3 LYS A   1      49.854  57.478   4.122  0.00  0.00    -0.089 HD
ENDBRANCH  56  57
ENDBRANCH  55  56
ENDBRANCH  54  55
ENDBRANCH  53  54
ENDBRANCH  50  53
ENDBRANCH  46  50
ENDBRANCH  45  48
BRANCH  45  61
ATOM     61  CB  ILE A   2      47.368  49.074   5.200  0.00  0.00    +0.027 C 
ATOM     62  CG2 ILE A   2      47.580  47.612   5.603  0.00  0.00    +0.002 C 
BRANCH  61  63
ATOM     63  CG1 ILE A   2      45.925  49.295   4.728  0.00  0.00    +0.002 C 
ATOM     64  CD1 ILE A   2      45.618  48.676   3.369  0.00  0.00    +0.000 C 
ENDBRANCH  61  63
ENDBRANCH  45  61
ENDBRANCH  41  45
ENDBRANCH  40  42
BRANCH  40  65
ATOM     65  CB  LEU A   3      51.021  49.649   9.604  0.00  0.00    +0.029 C 
BRANCH  65  66
ATOM     66  CG  LEU A   3      50.099  50.125  10.738  0.00  0.00    +0.002 C 
ATOM     67  CD2 LEU A   3      49.889  49.057  11.802  0.00  0.00    +0.000 C 
ATOM     68  CD1 LEU A   3      50.676  51.365  11.355  0.00  0.00    +0.000 C 
ENDBRANCH  65  66
ENDBRANCH  40  65
ENDBRANCH  36  40
ENDBRANCH   1  37
BRANCH   1  69
ATOM     69  CB  ASP A   4      51.999  44.380   9.713  0.00  0.00    +0.143 C 
BRANCH  69  70
ATOM     70  CG  ASP A   4      51.691  42.996  10.281  0.00  0.00    +0.367 C 
ATOM     71  OD2 ASP A   4      51.498  42.859  11.508  0.00  0.00    -0.246 OA
ATOM     72  OD1 ASP A   4      51.661  42.030   9.492  0.00  0.00    -0.246 OA
ENDBRANCH  69  70
ENDBRANCH   1  69
TORSDOF 31
REMARK  Name = ../refined-set-2016/3npc/3npc_pocket.pdb
REMARK  307 active torsions:
REMARK  status: ('A' for Active; 'I' for Inactive)
REMARK    1  A    between atoms: _1  and  _3
REMARK    2  A    between atoms: _3  and  _4
REMARK    3  A    between atoms: _3  and  _6
REMARK    4  A    between atoms: _6  and  _7
REMARK    5  A    between atoms: _10  and  _12
REMARK    6  A    between atoms: _12  and  _13
REMARK    7  A    between atoms: _15  and  _17
REMARK    8  A    between atoms: _17  and  _18
REMARK    9  A    between atoms: _17  and  _20
REMARK   10  A    between atoms: _20  and  _21
REMARK   11  A    between atoms: _21  and  _22
REMARK   12  A    between atoms: _27  and  _29
REMARK   13  A    between atoms: _29  and  _30
REMARK   14  A    between atoms: _29  and  _32
REMARK   15  A    between atoms: _32  and  _33
REMARK   16  A    between atoms: _36  and  _38
REMARK   17  A    between atoms: _38  and  _39
REMARK   18  A    between atoms: _38  and  _41
REMARK   19  A    between atoms: _44  and  _46
REMARK   20  A    between atoms: _46  and  _47
REMARK   21  A    between atoms: _46  and  _49
REMARK   22  A    between atoms: _51  and  _53
REMARK   23  A    between atoms: _53  and  _54
REMARK   24  A    between atoms: _57  and  _59
REMARK   25  A    between atoms: _59  and  _60
REMARK   26  A    between atoms: _59  and  _62
REMARK   27  A    between atoms: _62  and  _63
REMARK   28  A    between atoms: _68  and  _70
REMARK   29  A    between atoms: _70  and  _71
REMARK   30  A    between atoms: _70  and  _73
REMARK   31  A    between atoms: _76  and  _78
REMARK   32  A    between atoms: _78  and  _79
REMARK   33  A    between atoms: _82  and  _84
REMARK   34  A    between atoms: _84  and  _85
REMARK   35  A    between atoms: _84  and  _87
REMARK   36  A    between atoms: _90  and  _92
REMARK   37  A    between atoms: _92  and  _93
REMARK   38  A    between atoms: _92  and  _95
REMARK   39  A    between atoms: _95  and  _96
REMARK   40  A    between atoms: _96  and  _97
REMARK   41  A    between atoms: _97  and  _98
REMARK   42  A    between atoms: _98  and  _99
REMARK   43  A    between atoms: _103  and  _105
REMARK   44  A    between atoms: _105  and  _106
REMARK   45  A    between atoms: _105  and  _108
REMARK   46  A    between atoms: _108  and  _109
REMARK   47  A    between atoms: _109  and  _110
REMARK   48  A    between atoms: _110  and  _111
REMARK   49  A    between atoms: _111  and  _112
REMARK   50  A    between atoms: _116  and  _118
REMARK   51  A    between atoms: _118  and  _119
REMARK   52  A    between atoms: _118  and  _121
REMARK   53  A    between atoms: _121  and  _122
REMARK   54  A    between atoms: _125  and  _127
REMARK   55  A    between atoms: _127  and  _128
REMARK   56  A    between atoms: _127  and  _130
REMARK   57  A    between atoms: _130  and  _131
REMARK   58  A    between atoms: _134  and  _136
REMARK   59  A    between atoms: _136  and  _137
REMARK   60  A    between atoms: _136  and  _139
REMARK   61  A    between atoms: _139  and  _140
REMARK   62  A    between atoms: _145  and  _147
REMARK   63  A    between atoms: _147  and  _148
REMARK   64  A    between atoms: _147  and  _150
REMARK   65  A    between atoms: _150  and  _151
REMARK   66  A    between atoms: _151  and  _152
REMARK   67  A    between atoms: _152  and  _153
REMARK   68  A    between atoms: _153  and  _154
REMARK   69  A    between atoms: _158  and  _160
REMARK   70  A    between atoms: _160  and  _161
REMARK   71  A    between atoms: _160  and  _163
REMARK   72  A    between atoms: _163  and  _164
REMARK   73  A    between atoms: _164  and  _165
REMARK   74  A    between atoms: _165  and  _166
REMARK   75  A    between atoms: _175  and  _177
REMARK   76  A    between atoms: _177  and  _178
REMARK   77  A    between atoms: _181  and  _183
REMARK   78  A    between atoms: _183  and  _184
REMARK   79  A    between atoms: _183  and  _186
REMARK   80  A    between atoms: _186  and  _187
REMARK   81  A    between atoms: _192  and  _193
REMARK   82  A    between atoms: _195  and  _197
REMARK   83  A    between atoms: _197  and  _198
REMARK   84  A    between atoms: _197  and  _200
REMARK   85  A    between atoms: _200  and  _201
REMARK   86  A    between atoms: _201  and  _202
REMARK   87  A    between atoms: _202  and  _203
REMARK   88  A    between atoms: _212  and  _214
REMARK   89  A    between atoms: _214  and  _215
REMARK   90  A    between atoms: _214  and  _217
REMARK   91  A    between atoms: _217  and  _218
REMARK   92  A    between atoms: _218  and  _219
REMARK   93  A    between atoms: _222  and  _224
REMARK   94  A    between atoms: _224  and  _225
REMARK   95  A    between atoms: _224  and  _227
REMARK   96  A    between atoms: _227  and  _228
REMARK   97  A    between atoms: _231  and  _233
REMARK   98  A    between atoms: _233  and  _234
REMARK   99  A    between atoms: _233  and  _236
REMARK  100  A    between atoms: _239  and  _241
REMARK  101  A    between atoms: _241  and  _242
REMARK  102  A    between atoms: _241  and  _244
REMARK  103  A    between atoms: _244  and  _245
REMARK  104  A    between atoms: _248  and  _250
REMARK  105  A    between atoms: _250  and  _251
REMARK  106  A    between atoms: _250  and  _253
REMARK  107  A    between atoms: _253  and  _254
REMARK  108  A    between atoms: _257  and  _259
REMARK  109  A    between atoms: _259  and  _260
REMARK  110  A    between atoms: _259  and  _262
REMARK  111  A    between atoms: _262  and  _263
REMARK  112  A    between atoms: _263  and  _264
REMARK  113  A    between atoms: _264  and  _265
REMARK  114  A    between atoms: _265  and  _266
REMARK  115  A    between atoms: _270  and  _272
REMARK  116  A    between atoms: _272  and  _273
REMARK  117  A    between atoms: _272  and  _275
REMARK  118  A    between atoms: _277  and  _279
REMARK  119  A    between atoms: _279  and  _280
REMARK  120  A    between atoms: _279  and  _282
REMARK  121  A    between atoms: _285  and  _287
REMARK  122  A    between atoms: _287  and  _288
REMARK  123  A    between atoms: _287  and  _290
REMARK  124  A    between atoms: _290  and  _291
REMARK  125  A    between atoms: _296  and  _298
REMARK  126  A    between atoms: _298  and  _299
REMARK  127  A    between atoms: _298  and  _301
REMARK  128  A    between atoms: _301  and  _302
REMARK  129  A    between atoms: _305  and  _307
REMARK  130  A    between atoms: _307  and  _308
REMARK  131  A    between atoms: _307  and  _310
REMARK  132  A    between atoms: _310  and  _311
REMARK  133  A    between atoms: _314  and  _316
REMARK  134  A    between atoms: _316  and  _317
REMARK  135  A    between atoms: _316  and  _319
REMARK  136  A    between atoms: _319  and  _320
REMARK  137  A    between atoms: _322  and  _324
REMARK  138  A    between atoms: _324  and  _325
REMARK  139  A    between atoms: _324  and  _327
REMARK  140  A    between atoms: _327  and  _328
REMARK  141  A    between atoms: _331  and  _333
REMARK  142  A    between atoms: _333  and  _334
REMARK  143  A    between atoms: _333  and  _336
REMARK  144  A    between atoms: _336  and  _337
REMARK  145  A    between atoms: _340  and  _342
REMARK  146  A    between atoms: _342  and  _343
REMARK  147  A    between atoms: _342  and  _345
REMARK  148  A    between atoms: _345  and  _346
REMARK  149  A    between atoms: _351  and  _353
REMARK  150  A    between atoms: _353  and  _354
REMARK  151  A    between atoms: _353  and  _356
REMARK  152  A    between atoms: _356  and  _357
REMARK  153  A    between atoms: _362  and  _363
REMARK  154  A    between atoms: _365  and  _367
REMARK  155  A    between atoms: _367  and  _368
REMARK  156  A    between atoms: _367  and  _370
REMARK  157  A    between atoms: _370  and  _371
REMARK  158  A    between atoms: _374  and  _376
REMARK  159  A    between atoms: _376  and  _377
REMARK  160  A    between atoms: _376  and  _379
REMARK  161  A    between atoms: _382  and  _384
REMARK  162  A    between atoms: _384  and  _385
REMARK  163  A    between atoms: _384  and  _387
REMARK  164  A    between atoms: _387  and  _388
REMARK  165  A    between atoms: _388  and  _389
REMARK  166  A    between atoms: _391  and  _393
REMARK  167  A    between atoms: _393  and  _394
REMARK  168  A    between atoms: _393  and  _396
REMARK  169  A    between atoms: _396  and  _397
REMARK  170  A    between atoms: _397  and  _398
REMARK  171  A    between atoms: _401  and  _403
REMARK  172  A    between atoms: _403  and  _404
REMARK  173  A    between atoms: _403  and  _406
REMARK  174  A    between atoms: _406  and  _407
REMARK  175  A    between atoms: _410  and  _412
REMARK  176  A    between atoms: _412  and  _413
REMARK  177  A    between atoms: _412  and  _415
REMARK  178  A    between atoms: _415  and  _416
REMARK  179  A    between atoms: _416  and  _417
REMARK  180  A    between atoms: _419  and  _421
REMARK  181  A    between atoms: _421  and  _422
REMARK  182  A    between atoms: _421  and  _424
REMARK  183  A    between atoms: _424  and  _425
REMARK  184  A    between atoms: _428  and  _430
REMARK  185  A    between atoms: _430  and  _431
REMARK  186  A    between atoms: _434  and  _436
REMARK  187  A    between atoms: _436  and  _437
REMARK  188  A    between atoms: _436  and  _439
REMARK  189  A    between atoms: _439  and  _440
REMARK  190  A    between atoms: _445  and  _447
REMARK  191  A    between atoms: _447  and  _448
REMARK  192  A    between atoms: _447  and  _450
REMARK  193  A    between atoms: _450  and  _451
REMARK  194  A    between atoms: _451  and  _452
REMARK  195  A    between atoms: _457  and  _459
REMARK  196  A    between atoms: _459  and  _460
REMARK  197  A    between atoms: _462  and  _464
REMARK  198  A    between atoms: _464  and  _465
REMARK  199  A    between atoms: _464  and  _467
REMARK  200  A    between atoms: _467  and  _468
REMARK  201  A    between atoms: _471  and  _473
REMARK  202  A    between atoms: _473  and  _474
REMARK  203  A    between atoms: _477  and  _479
REMARK  204  A    between atoms: _479  and  _480
REMARK  205  A    between atoms: _479  and  _482
REMARK  206  A    between atoms: _482  and  _483
REMARK  207  A    between atoms: _486  and  _488
REMARK  208  A    between atoms: _488  and  _489
REMARK  209  A    between atoms: _488  and  _491
REMARK  210  A    between atoms: _491  and  _492
REMARK  211  A    between atoms: _495  and  _497
REMARK  212  A    between atoms: _497  and  _498
REMARK  213  A    between atoms: _497  and  _500
REMARK  214  A    between atoms: _500  and  _501
REMARK  215  A    between atoms: _506  and  _508
REMARK  216  A    between atoms: _508  and  _509
REMARK  217  A    between atoms: _508  and  _511
REMARK  218  A    between atoms: _511  and  _512
REMARK  219  A    between atoms: _512  and  _513
REMARK  220  A    between atoms: _513  and  _514
REMARK  221  A    between atoms: _523  and  _525
REMARK  222  A    between atoms: _525  and  _526
REMARK  223  A    between atoms: _525  and  _528
REMARK  224  A    between atoms: _528  and  _529
REMARK  225  A    between atoms: _532  and  _534
REMARK  226  A    between atoms: _534  and  _535
REMARK  227  A    between atoms: _534  and  _537
REMARK  228  A    between atoms: _537  and  _538
REMARK  229  A    between atoms: _541  and  _543
REMARK  230  A    between atoms: _543  and  _544
REMARK  231  A    between atoms: _543  and  _546
REMARK  232  A    between atoms: _546  and  _547
REMARK  233  A    between atoms: _549  and  _551
REMARK  234  A    between atoms: _551  and  _552
REMARK  235  A    between atoms: _551  and  _554
REMARK  236  A    between atoms: _554  and  _555
REMARK  237  A    between atoms: _560  and  _562
REMARK  238  A    between atoms: _562  and  _563
REMARK  239  A    between atoms: _562  and  _565
REMARK  240  A    between atoms: _565  and  _566
REMARK  241  A    between atoms: _569  and  _571
REMARK  242  A    between atoms: _571  and  _572
REMARK  243  A    between atoms: _571  and  _574
REMARK  244  A    between atoms: _577  and  _579
REMARK  245  A    between atoms: _579  and  _580
REMARK  246  A    between atoms: _579  and  _582
REMARK  247  A    between atoms: _585  and  _587
REMARK  248  A    between atoms: _587  and  _588
REMARK  249  A    between atoms: _587  and  _590
REMARK  250  A    between atoms: _590  and  _591
REMARK  251  A    between atoms: _591  and  _592
REMARK  252  A    between atoms: _592  and  _593
REMARK  253  A    between atoms: _593  and  _594
REMARK  254  A    between atoms: _598  and  _600
REMARK  255  A    between atoms: _600  and  _601
REMARK  256  A    between atoms: _600  and  _603
REMARK  257  A    between atoms: _603  and  _604
REMARK  258  A    between atoms: _604  and  _605
REMARK  259  A    between atoms: _605  and  _606
REMARK  260  A    between atoms: _606  and  _607
REMARK  261  A    between atoms: _611  and  _613
REMARK  262  A    between atoms: _613  and  _614
REMARK  263  A    between atoms: _613  and  _616
REMARK  264  A    between atoms: _616  and  _617
REMARK  265  A    between atoms: _620  and  _622
REMARK  266  A    between atoms: _622  and  _623
REMARK  267  A    between atoms: _622  and  _625
REMARK  268  A    between atoms: _625  and  _626
REMARK  269  A    between atoms: _629  and  _631
REMARK  270  A    between atoms: _631  and  _632
REMARK  271  A    between atoms: _631  and  _634
REMARK  272  A    between atoms: _634  and  _635
REMARK  273  A    between atoms: _638  and  _640
REMARK  274  A    between atoms: _640  and  _641
REMARK  275  A    between atoms: _640  and  _643
REMARK  276  A    between atoms: _643  and  _644
REMARK  277  A    between atoms: _650  and  _652
REMARK  278  A    between atoms: _652  and  _653
REMARK  279  A    between atoms: _655  and  _657
REMARK  280  A    between atoms: _657  and  _658
REMARK  281  A    between atoms: _657  and  _660
REMARK  282  A    between atoms: _660  and  _661
REMARK  283  A    between atoms: _664  and  _666
REMARK  284  A    between atoms: _666  and  _667
REMARK  285  A    between atoms: _670  and  _672
REMARK  286  A    between atoms: _672  and  _673
REMARK  287  A    between atoms: _672  and  _675
REMARK  288  A    between atoms: _675  and  _676
REMARK  289  A    between atoms: _676  and  _677
REMARK  290  A    between atoms: _679  and  _681
REMARK  291  A    between atoms: _681  and  _682
REMARK  292  A    between atoms: _681  and  _684
REMARK  293  A    between atoms: _684  and  _685
REMARK  294  A    between atoms: _685  and  _686
REMARK  295  A    between atoms: _688  and  _690
REMARK  296  A    between atoms: _690  and  _691
REMARK  297  A    between atoms: _690  and  _693
REMARK  298  A    between atoms: _693  and  _694
REMARK  299  A    between atoms: _697  and  _699
REMARK  300  A    between atoms: _699  and  _700
REMARK  301  A    between atoms: _699  and  _702
REMARK  302  A    between atoms: _702  and  _703
REMARK  303  A    between atoms: _706  and  _708
REMARK  304  A    between atoms: _708  and  _709
REMARK  305  A    between atoms: _708  and  _711
REMARK  306  A    between atoms: _711  and  _712
REMARK  307  A    between atoms: _712  and  _713
REMARK                            x       y       z     vdW  Elec       q    Type
REMARK                         _______ _______ _______ _____ _____    ______ ____
ROOT
ATOM      1  CA  MET A   2      48.658  52.723  24.158  0.00  0.00    +0.149 C 
ENDROOT
BRANCH   1   4
ATOM      2  C   MET A   1      49.178  50.428  24.756  0.00  0.00    +0.238 C 
ATOM      3  O   MET A   1      48.498  50.473  25.778  0.00  0.00    -0.274 OA
ATOM      4  N   MET A   2      49.397  51.484  23.981  0.00  0.00    -0.297 N 
ATOM      5  H   MET A   2      50.114  51.423  23.230  0.00  0.00    +0.150 HD
BRANCH   2   6
ATOM      6  CA  MET A   1      49.830  49.125  24.312  0.00  0.00    +0.146 C 
BRANCH   6   7
ATOM      7  N   MET A   1      50.470  48.420  25.424  0.00  0.00    -0.238 NA
ATOM      8  H   MET A   1      49.985  48.381  26.343  0.00  0.00    +0.142 HD
ENDBRANCH   6   7
BRANCH   6   9
ATOM      9  CB  MET A   1      48.789  48.230  23.618  0.00  0.00    +0.038 C 
BRANCH   9  10
ATOM     10  CG  MET A   1      49.380  47.135  22.713  0.00  0.00    +0.060 C 
BRANCH  10  11
ATOM     11  SD  MET A   1      50.244  47.832  21.277  0.00  0.00    -0.139 S 
ATOM     12  CE  MET A   1      51.422  46.548  20.901  0.00  0.00    +0.069 C 
ENDBRANCH  10  11
ENDBRANCH   9  10
ENDBRANCH   6   9
ENDBRANCH   2   6
ENDBRANCH   1   4
BRANCH   1  13
ATOM     13  C   MET A   2      47.607  52.887  23.067  0.00  0.00    +0.241 C 
ATOM     14  O   MET A   2      46.992  53.944  22.933  0.00  0.00    -0.273 OA
ATOM     15  N   THR A   3      47.396  51.824  22.297  0.00  0.00    -0.296 N 
ATOM     16  H   THR A   3      47.957  50.964  22.463  0.00  0.00    +0.150 HD
BRANCH  15  17
ATOM     17  CA  THR A   3      46.402  51.822  21.225  0.00  0.00    +0.164 C 
BRANCH  17  18
ATOM     18  C   THR A   3      45.626  50.515  21.303  0.00  0.00    +0.229 C 
ATOM     19  O   THR A   3      46.197  49.501  21.693  0.00  0.00    -0.286 OA
ENDBRANCH  17  18
BRANCH  17  20
ATOM     20  CB  THR A   3      47.067  51.962  19.823  0.00  0.00    +0.136 C 
ATOM     21  CG2 THR A   3      47.612  53.377  19.611  0.00  0.00    +0.034 C 
BRANCH  20  22
ATOM     22  OG1 THR A   3      48.151  51.034  19.719  0.00  0.00    -0.382 OA
ATOM     23  HG1 THR A   3      47.807  50.113  19.833  0.00  0.00    +0.210 HD
ENDBRANCH  20  22
ENDBRANCH  17  20
ENDBRANCH  15  17
ENDBRANCH   1  13
BRANCH   1  24
ATOM     24  CB  MET A   2      49.597  53.929  24.224  0.00  0.00    +0.041 C 
BRANCH  24  25
ATOM     25  CG  MET A   2      50.324  54.057  25.558  0.00  0.00    +0.060 C 
BRANCH  25  26
ATOM     26  SD  MET A   2      49.163  54.186  26.950  0.00  0.00    -0.139 S 
ATOM     27  CE  MET A   2      48.658  55.893  26.773  0.00  0.00    +0.069 C 
ENDBRANCH  25  26
ENDBRANCH  24  25
ENDBRANCH   1  24
TORSDOF 14
REMARK  Name = ../refined-set-2016/3npc/3npc_pocket.pdb
REMARK  307 active torsions:
REMARK  status: ('A' for Active; 'I' for Inactive)
REMARK    1  A    between atoms: _1  and  _3
REMARK    2  A    between atoms: _3  and  _4
REMARK    3  A    between atoms: _3  and  _6
REMARK    4  A    between atoms: _6  and  _7
REMARK    5  A    between atoms: _10  and  _12
REMARK    6  A    between atoms: _12  and  _13
REMARK    7  A    between atoms: _15  and  _17
REMARK    8  A    between atoms: _17  and  _18
REMARK    9  A    between atoms: _17  and  _20
REMARK   10  A    between atoms: _20  and  _21
REMARK   11  A    between atoms: _21  and  _22
REMARK   12  A    between atoms: _27  and  _29
REMARK   13  A    between atoms: _29  and  _30
REMARK   14  A    between atoms: _29  and  _32
REMARK   15  A    between atoms: _32  and  _33
REMARK   16  A    between atoms: _36  and  _38
REMARK   17  A    between atoms: _38  and  _39
REMARK   18  A    between atoms: _38  and  _41
REMARK   19  A    between atoms: _44  and  _46
REMARK   20  A    between atoms: _46  and  _47
REMARK   21  A    between atoms: _46  and  _49
REMARK   22  A    between atoms: _51  and  _53
REMARK   23  A    between atoms: _53  and  _54
REMARK   24  A    between atoms: _57  and  _59
REMARK   25  A    between atoms: _59  and  _60
REMARK   26  A    between atoms: _59  and  _62
REMARK   27  A    between atoms: _62  and  _63
REMARK   28  A    between atoms: _68  and  _70
REMARK   29  A    between atoms: _70  and  _71
REMARK   30  A    between atoms: _70  and  _73
REMARK   31  A    between atoms: _76  and  _78
REMARK   32  A    between atoms: _78  and  _79
REMARK   33  A    between atoms: _82  and  _84
REMARK   34  A    between atoms: _84  and  _85
REMARK   35  A    between atoms: _84  and  _87
REMARK   36  A    between atoms: _90  and  _92
REMARK   37  A    between atoms: _92  and  _93
REMARK   38  A    between atoms: _92  and  _95
REMARK   39  A    between atoms: _95  and  _96
REMARK   40  A    between atoms: _96  and  _97
REMARK   41  A    between atoms: _97  and  _98
REMARK   42  A    between atoms: _98  and  _99
REMARK   43  A    between atoms: _103  and  _105
REMARK   44  A    between atoms: _105  and  _106
REMARK   45  A    between atoms: _105  and  _108
REMARK   46  A    between atoms: _108  and  _109
REMARK   47  A    between atoms: _109  and  _110
REMARK   48  A    between atoms: _110  and  _111
REMARK   49  A    between atoms: _111  and  _112
REMARK   50  A    between atoms: _116  and  _118
REMARK   51  A    between atoms: _118  and  _119
REMARK   52  A    between atoms: _118  and  _121
REMARK   53  A    between atoms: _121  and  _122
REMARK   54  A    between atoms: _125  and  _127
REMARK   55  A    between atoms: _127  and  _128
REMARK   56  A    between atoms: _127  and  _130
REMARK   57  A    between atoms: _130  and  _131
REMARK   58  A    between atoms: _134  and  _136
REMARK   59  A    between atoms: _136  and  _137
REMARK   60  A    between atoms: _136  and  _139
REMARK   61  A    between atoms: _139  and  _140
REMARK   62  A    between atoms: _145  and  _147
REMARK   63  A    between atoms: _147  and  _148
REMARK   64  A    between atoms: _147  and  _150
REMARK   65  A    between atoms: _150  and  _151
REMARK   66  A    between atoms: _151  and  _152
REMARK   67  A    between atoms: _152  and  _153
REMARK   68  A    between atoms: _153  and  _154
REMARK   69  A    between atoms: _158  and  _160
REMARK   70  A    between atoms: _160  and  _161
REMARK   71  A    between atoms: _160  and  _163
REMARK   72  A    between atoms: _163  and  _164
REMARK   73  A    between atoms: _164  and  _165
REMARK   74  A    between atoms: _165  and  _166
REMARK   75  A    between atoms: _175  and  _177
REMARK   76  A    between atoms: _177  and  _178
REMARK   77  A    between atoms: _181  and  _183
REMARK   78  A    between atoms: _183  and  _184
REMARK   79  A    between atoms: _183  and  _186
REMARK   80  A    between atoms: _186  and  _187
REMARK   81  A    between atoms: _192  and  _193
REMARK   82  A    between atoms: _195  and  _197
REMARK   83  A    between atoms: _197  and  _198
REMARK   84  A    between atoms: _197  and  _200
REMARK   85  A    between atoms: _200  and  _201
REMARK   86  A    between atoms: _201  and  _202
REMARK   87  A    between atoms: _202  and  _203
REMARK   88  A    between atoms: _212  and  _214
REMARK   89  A    between atoms: _214  and  _215
REMARK   90  A    between atoms: _214  and  _217
REMARK   91  A    between atoms: _217  and  _218
REMARK   92  A    between atoms: _218  and  _219
REMARK   93  A    between atoms: _222  and  _224
REMARK   94  A    between atoms: _224  and  _225
REMARK   95  A    between atoms: _224  and  _227
REMARK   96  A    between atoms: _227  and  _228
REMARK   97  A    between atoms: _231  and  _233
REMARK   98  A    between atoms: _233  and  _234
REMARK   99  A    between atoms: _233  and  _236
REMARK  100  A    between atoms: _239  and  _241
REMARK  101  A    between atoms: _241  and  _242
REMARK  102  A    between atoms: _241  and  _244
REMARK  103  A    between atoms: _244  and  _245
REMARK  104  A    between atoms: _248  and  _250
REMARK  105  A    between atoms: _250  and  _251
REMARK  106  A    between atoms: _250  and  _253
REMARK  107  A    between atoms: _253  and  _254
REMARK  108  A    between atoms: _257  and  _259
REMARK  109  A    between atoms: _259  and  _260
REMARK  110  A    between atoms: _259  and  _262
REMARK  111  A    between atoms: _262  and  _263
REMARK  112  A    between atoms: _263  and  _264
REMARK  113  A    between atoms: _264  and  _265
REMARK  114  A    between atoms: _265  and  _266
REMARK  115  A    between atoms: _270  and  _272
REMARK  116  A    between atoms: _272  and  _273
REMARK  117  A    between atoms: _272  and  _275
REMARK  118  A    between atoms: _277  and  _279
REMARK  119  A    between atoms: _279  and  _280
REMARK  120  A    between atoms: _279  and  _282
REMARK  121  A    between atoms: _285  and  _287
REMARK  122  A    between atoms: _287  and  _288
REMARK  123  A    between atoms: _287  and  _290
REMARK  124  A    between atoms: _290  and  _291
REMARK  125  A    between atoms: _296  and  _298
REMARK  126  A    between atoms: _298  and  _299
REMARK  127  A    between atoms: _298  and  _301
REMARK  128  A    between atoms: _301  and  _302
REMARK  129  A    between atoms: _305  and  _307
REMARK  130  A    between atoms: _307  and  _308
REMARK  131  A    between atoms: _307  and  _310
REMARK  132  A    between atoms: _310  and  _311
REMARK  133  A    between atoms: _314  and  _316
REMARK  134  A    between atoms: _316  and  _317
REMARK  135  A    between atoms: _316  and  _319
REMARK  136  A    between atoms: _319  and  _320
REMARK  137  A    between atoms: _322  and  _324
REMARK  138  A    between atoms: _324  and  _325
REMARK  139  A    between atoms: _324  and  _327
REMARK  140  A    between atoms: _327  and  _328
REMARK  141  A    between atoms: _331  and  _333
REMARK  142  A    between atoms: _333  and  _334
REMARK  143  A    between atoms: _333  and  _336
REMARK  144  A    between atoms: _336  and  _337
REMARK  145  A    between atoms: _340  and  _342
REMARK  146  A    between atoms: _342  and  _343
REMARK  147  A    between atoms: _342  and  _345
REMARK  148  A    between atoms: _345  and  _346
REMARK  149  A    between atoms: _351  and  _353
REMARK  150  A    between atoms: _353  and  _354
REMARK  151  A    between atoms: _353  and  _356
REMARK  152  A    between atoms: _356  and  _357
REMARK  153  A    between atoms: _362  and  _363
REMARK  154  A    between atoms: _365  and  _367
REMARK  155  A    between atoms: _367  and  _368
REMARK  156  A    between atoms: _367  and  _370
REMARK  157  A    between atoms: _370  and  _371
REMARK  158  A    between atoms: _374  and  _376
REMARK  159  A    between atoms: _376  and  _377
REMARK  160  A    between atoms: _376  and  _379
REMARK  161  A    between atoms: _382  and  _384
REMARK  162  A    between atoms: _384  and  _385
REMARK  163  A    between atoms: _384  and  _387
REMARK  164  A    between atoms: _387  and  _388
REMARK  165  A    between atoms: _388  and  _389
REMARK  166  A    between atoms: _391  and  _393
REMARK  167  A    between atoms: _393  and  _394
REMARK  168  A    between atoms: _393  and  _396
REMARK  169  A    between atoms: _396  and  _397
REMARK  170  A    between atoms: _397  and  _398
REMARK  171  A    between atoms: _401  and  _403
REMARK  172  A    between atoms: _403  and  _404
REMARK  173  A    between atoms: _403  and  _406
REMARK  174  A    between atoms: _406  and  _407
REMARK  175  A    between atoms: _410  and  _412
REMARK  176  A    between atoms: _412  and  _413
REMARK  177  A    between atoms: _412  and  _415
REMARK  178  A    between atoms: _415  and  _416
REMARK  179  A    between atoms: _416  and  _417
REMARK  180  A    between atoms: _419  and  _421
REMARK  181  A    between atoms: _421  and  _422
REMARK  182  A    between atoms: _421  and  _424
REMARK  183  A    between atoms: _424  and  _425
REMARK  184  A    between atoms: _428  and  _430
REMARK  185  A    between atoms: _430  and  _431
REMARK  186  A    between atoms: _434  and  _436
REMARK  187  A    between atoms: _436  and  _437
REMARK  188  A    between atoms: _436  and  _439
REMARK  189  A    between atoms: _439  and  _440
REMARK  190  A    between atoms: _445  and  _447
REMARK  191  A    between atoms: _447  and  _448
REMARK  192  A    between atoms: _447  and  _450
REMARK  193  A    between atoms: _450  and  _451
REMARK  194  A    between atoms: _451  and  _452
REMARK  195  A    between atoms: _457  and  _459
REMARK  196  A    between atoms: _459  and  _460
REMARK  197  A    between atoms: _462  and  _464
REMARK  198  A    between atoms: _464  and  _465
REMARK  199  A    between atoms: _464  and  _467
REMARK  200  A    between atoms: _467  and  _468
REMARK  201  A    between atoms: _471  and  _473
REMARK  202  A    between atoms: _473  and  _474
REMARK  203  A    between atoms: _477  and  _479
REMARK  204  A    between atoms: _479  and  _480
REMARK  205  A    between atoms: _479  and  _482
REMARK  206  A    between atoms: _482  and  _483
REMARK  207  A    between atoms: _486  and  _488
REMARK  208  A    between atoms: _488  and  _489
REMARK  209  A    between atoms: _488  and  _491
REMARK  210  A    between atoms: _491  and  _492
REMARK  211  A    between atoms: _495  and  _497
REMARK  212  A    between atoms: _497  and  _498
REMARK  213  A    between atoms: _497  and  _500
REMARK  214  A    between atoms: _500  and  _501
REMARK  215  A    between atoms: _506  and  _508
REMARK  216  A    between atoms: _508  and  _509
REMARK  217  A    between atoms: _508  and  _511
REMARK  218  A    between atoms: _511  and  _512
REMARK  219  A    between atoms: _512  and  _513
REMARK  220  A    between atoms: _513  and  _514
REMARK  221  A    between atoms: _523  and  _525
REMARK  222  A    between atoms: _525  and  _526
REMARK  223  A    between atoms: _525  and  _528
REMARK  224  A    between atoms: _528  and  _529
REMARK  225  A    between atoms: _532  and  _534
REMARK  226  A    between atoms: _534  and  _535
REMARK  227  A    between atoms: _534  and  _537
REMARK  228  A    between atoms: _537  and  _538
REMARK  229  A    between atoms: _541  and  _543
REMARK  230  A    between atoms: _543  and  _544
REMARK  231  A    between atoms: _543  and  _546
REMARK  232  A    between atoms: _546  and  _547
REMARK  233  A    between atoms: _549  and  _551
REMARK  234  A    between atoms: _551  and  _552
REMARK  235  A    between atoms: _551  and  _554
REMARK  236  A    between atoms: _554  and  _555
REMARK  237  A    between atoms: _560  and  _562
REMARK  238  A    between atoms: _562  and  _563
REMARK  239  A    between atoms: _562  and  _565
REMARK  240  A    between atoms: _565  and  _566
REMARK  241  A    between atoms: _569  and  _571
REMARK  242  A    between atoms: _571  and  _572
REMARK  243  A    between atoms: _571  and  _574
REMARK  244  A    between atoms: _577  and  _579
REMARK  245  A    between atoms: _579  and  _580
REMARK  246  A    between atoms: _579  and  _582
REMARK  247  A    between atoms: _585  and  _587
REMARK  248  A    between atoms: _587  and  _588
REMARK  249  A    between atoms: _587  and  _590
REMARK  250  A    between atoms: _590  and  _591
REMARK  251  A    between atoms: _591  and  _592
REMARK  252  A    between atoms: _592  and  _593
REMARK  253  A    between atoms: _593  and  _594
REMARK  254  A    between atoms: _598  and  _600
REMARK  255  A    between atoms: _600  and  _601
REMARK  256  A    between atoms: _600  and  _603
REMARK  257  A    between atoms: _603  and  _604
REMARK  258  A    between atoms: _604  and  _605
REMARK  259  A    between atoms: _605  and  _606
REMARK  260  A    between atoms: _606  and  _607
REMARK  261  A    between atoms: _611  and  _613
REMARK  262  A    between atoms: _613  and  _614
REMARK  263  A    between atoms: _613  and  _616
REMARK  264  A    between atoms: _616  and  _617
REMARK  265  A    between atoms: _620  and  _622
REMARK  266  A    between atoms: _622  and  _623
REMARK  267  A    between atoms: _622  and  _625
REMARK  268  A    between atoms: _625  and  _626
REMARK  269  A    between atoms: _629  and  _631
REMARK  270  A    between atoms: _631  and  _632
REMARK  271  A    between atoms: _631  and  _634
REMARK  272  A    between atoms: _634  and  _635
REMARK  273  A    between atoms: _638  and  _640
REMARK  274  A    between atoms: _640  and  _641
REMARK  275  A    between atoms: _640  and  _643
REMARK  276  A    between atoms: _643  and  _644
REMARK  277  A    between atoms: _650  and  _652
REMARK  278  A    between atoms: _652  and  _653
REMARK  279  A    between atoms: _655  and  _657
REMARK  280  A    between atoms: _657  and  _658
REMARK  281  A    between atoms: _657  and  _660
REMARK  282  A    between atoms: _660  and  _661
REMARK  283  A    between atoms: _664  and  _666
REMARK  284  A    between atoms: _666  and  _667
REMARK  285  A    between atoms: _670  and  _672
REMARK  286  A    between atoms: _672  and  _673
REMARK  287  A    between atoms: _672  and  _675
REMARK  288  A    between atoms: _675  and  _676
REMARK  289  A    between atoms: _676  and  _677
REMARK  290  A    between atoms: _679  and  _681
REMARK  291  A    between atoms: _681  and  _682
REMARK  292  A    between atoms: _681  and  _684
REMARK  293  A    between atoms: _684  and  _685
REMARK  294  A    between atoms: _685  and  _686
REMARK  295  A    between atoms: _688  and  _690
REMARK  296  A    between atoms: _690  and  _691
REMARK  297  A    between atoms: _690  and  _693
REMARK  298  A    between atoms: _693  and  _694
REMARK  299  A    between atoms: _697  and  _699
REMARK  300  A    between atoms: _699  and  _700
REMARK  301  A    between atoms: _699  and  _702
REMARK  302  A    between atoms: _702  and  _703
REMARK  303  A    between atoms: _706  and  _708
REMARK  304  A    between atoms: _708  and  _709
REMARK  305  A    between atoms: _708  and  _711
REMARK  306  A    between atoms: _711  and  _712
REMARK  307  A    between atoms: _712  and  _713
REMARK                            x       y       z     vdW  Elec       q    Type
REMARK                         _______ _______ _______ _____ _____    ______ ____
ROOT
ATOM      1  CA  ASP A   1      42.377  40.457   2.173  0.00  0.00    +0.144 C 
ENDROOT
BRANCH   1   2
ATOM      2  N   ASP A   1      42.412  39.068   1.720  0.00  0.00    -0.239 NA
ATOM      3  H   ASP A   1      43.069  38.815   0.955  0.00  0.00    +0.142 HD
ENDBRANCH   1   2
BRANCH   1   4
ATOM      4  C   ASP A   1      41.043  41.133   1.856  0.00  0.00    +0.225 C 
ATOM      5  O   ASP A   1      40.613  42.024   2.594  0.00  0.00    -0.287 OA
ENDBRANCH   1   4
BRANCH   1   6
ATOM      6  CB  ASP A   1      43.541  41.250   1.577  0.00  0.00    +0.139 C 
BRANCH   6   7
ATOM      7  CG  ASP A   1      44.909  40.830   2.146  0.00  0.00    +0.367 C 
ATOM      8  OD2 ASP A   1      44.983  40.206   3.236  0.00  0.00    -0.246 OA
ATOM      9  OD1 ASP A   1      45.927  41.138   1.496  0.00  0.00    -0.246 OA
ENDBRANCH   6   7
ENDBRANCH   1   6
TORSDOF 4
REMARK  Name = ../refined-set-2016/3npc/3npc_pocket.pdb
REMARK  307 active torsions:
REMARK  status: ('A' for Active; 'I' for Inactive)
REMARK    1  A    between atoms: _1  and  _3
REMARK    2  A    between atoms: _3  and  _4
REMARK    3  A    between atoms: _3  and  _6
REMARK    4  A    between atoms: _6  and  _7
REMARK    5  A    between atoms: _10  and  _12
REMARK    6  A    between atoms: _12  and  _13
REMARK    7  A    between atoms: _15  and  _17
REMARK    8  A    between atoms: _17  and  _18
REMARK    9  A    between atoms: _17  and  _20
REMARK   10  A    between atoms: _20  and  _21
REMARK   11  A    between atoms: _21  and  _22
REMARK   12  A    between atoms: _27  and  _29
REMARK   13  A    between atoms: _29  and  _30
REMARK   14  A    between atoms: _29  and  _32
REMARK   15  A    between atoms: _32  and  _33
REMARK   16  A    between atoms: _36  and  _38
REMARK   17  A    between atoms: _38  and  _39
REMARK   18  A    between atoms: _38  and  _41
REMARK   19  A    between atoms: _44  and  _46
REMARK   20  A    between atoms: _46  and  _47
REMARK   21  A    between atoms: _46  and  _49
REMARK   22  A    between atoms: _51  and  _53
REMARK   23  A    between atoms: _53  and  _54
REMARK   24  A    between atoms: _57  and  _59
REMARK   25  A    between atoms: _59  and  _60
REMARK   26  A    between atoms: _59  and  _62
REMARK   27  A    between atoms: _62  and  _63
REMARK   28  A    between atoms: _68  and  _70
REMARK   29  A    between atoms: _70  and  _71
REMARK   30  A    between atoms: _70  and  _73
REMARK   31  A    between atoms: _76  and  _78
REMARK   32  A    between atoms: _78  and  _79
REMARK   33  A    between atoms: _82  and  _84
REMARK   34  A    between atoms: _84  and  _85
REMARK   35  A    between atoms: _84  and  _87
REMARK   36  A    between atoms: _90  and  _92
REMARK   37  A    between atoms: _92  and  _93
REMARK   38  A    between atoms: _92  and  _95
REMARK   39  A    between atoms: _95  and  _96
REMARK   40  A    between atoms: _96  and  _97
REMARK   41  A    between atoms: _97  and  _98
REMARK   42  A    between atoms: _98  and  _99
REMARK   43  A    between atoms: _103  and  _105
REMARK   44  A    between atoms: _105  and  _106
REMARK   45  A    between atoms: _105  and  _108
REMARK   46  A    between atoms: _108  and  _109
REMARK   47  A    between atoms: _109  and  _110
REMARK   48  A    between atoms: _110  and  _111
REMARK   49  A    between atoms: _111  and  _112
REMARK   50  A    between atoms: _116  and  _118
REMARK   51  A    between atoms: _118  and  _119
REMARK   52  A    between atoms: _118  and  _121
REMARK   53  A    between atoms: _121  and  _122
REMARK   54  A    between atoms: _125  and  _127
REMARK   55  A    between atoms: _127  and  _128
REMARK   56  A    between atoms: _127  and  _130
REMARK   57  A    between atoms: _130  and  _131
REMARK   58  A    between atoms: _134  and  _136
REMARK   59  A    between atoms: _136  and  _137
REMARK   60  A    between atoms: _136  and  _139
REMARK   61  A    between atoms: _139  and  _140
REMARK   62  A    between atoms: _145  and  _147
REMARK   63  A    between atoms: _147  and  _148
REMARK   64  A    between atoms: _147  and  _150
REMARK   65  A    between atoms: _150  and  _151
REMARK   66  A    between atoms: _151  and  _152
REMARK   67  A    between atoms: _152  and  _153
REMARK   68  A    between atoms: _153  and  _154
REMARK   69  A    between atoms: _158  and  _160
REMARK   70  A    between atoms: _160  and  _161
REMARK   71  A    between atoms: _160  and  _163
REMARK   72  A    between atoms: _163  and  _164
REMARK   73  A    between atoms: _164  and  _165
REMARK   74  A    between atoms: _165  and  _166
REMARK   75  A    between atoms: _175  and  _177
REMARK   76  A    between atoms: _177  and  _178
REMARK   77  A    between atoms: _181  and  _183
REMARK   78  A    between atoms: _183  and  _184
REMARK   79  A    between atoms: _183  and  _186
REMARK   80  A    between atoms: _186  and  _187
REMARK   81  A    between atoms: _192  and  _193
REMARK   82  A    between atoms: _195  and  _197
REMARK   83  A    between atoms: _197  and  _198
REMARK   84  A    between atoms: _197  and  _200
REMARK   85  A    between atoms: _200  and  _201
REMARK   86  A    between atoms: _201  and  _202
REMARK   87  A    between atoms: _202  and  _203
REMARK   88  A    between atoms: _212  and  _214
REMARK   89  A    between atoms: _214  and  _215
REMARK   90  A    between atoms: _214  and  _217
REMARK   91  A    between atoms: _217  and  _218
REMARK   92  A    between atoms: _218  and  _219
REMARK   93  A    between atoms: _222  and  _224
REMARK   94  A    between atoms: _224  and  _225
REMARK   95  A    between atoms: _224  and  _227
REMARK   96  A    between atoms: _227  and  _228
REMARK   97  A    between atoms: _231  and  _233
REMARK   98  A    between atoms: _233  and  _234
REMARK   99  A    between atoms: _233  and  _236
REMARK  100  A    between atoms: _239  and  _241
REMARK  101  A    between atoms: _241  and  _242
REMARK  102  A    between atoms: _241  and  _244
REMARK  103  A    between atoms: _244  and  _245
REMARK  104  A    between atoms: _248  and  _250
REMARK  105  A    between atoms: _250  and  _251
REMARK  106  A    between atoms: _250  and  _253
REMARK  107  A    between atoms: _253  and  _254
REMARK  108  A    between atoms: _257  and  _259
REMARK  109  A    between atoms: _259  and  _260
REMARK  110  A    between atoms: _259  and  _262
REMARK  111  A    between atoms: _262  and  _263
REMARK  112  A    between atoms: _263  and  _264
REMARK  113  A    between atoms: _264  and  _265
REMARK  114  A    between atoms: _265  and  _266
REMARK  115  A    between atoms: _270  and  _272
REMARK  116  A    between atoms: _272  and  _273
REMARK  117  A    between atoms: _272  and  _275
REMARK  118  A    between atoms: _277  and  _279
REMARK  119  A    between atoms: _279  and  _280
REMARK  120  A    between atoms: _279  and  _282
REMARK  121  A    between atoms: _285  and  _287
REMARK  122  A    between atoms: _287  and  _288
REMARK  123  A    between atoms: _287  and  _290
REMARK  124  A    between atoms: _290  and  _291
REMARK  125  A    between atoms: _296  and  _298
REMARK  126  A    between atoms: _298  and  _299
REMARK  127  A    between atoms: _298  and  _301
REMARK  128  A    between atoms: _301  and  _302
REMARK  129  A    between atoms: _305  and  _307
REMARK  130  A    between atoms: _307  and  _308
REMARK  131  A    between atoms: _307  and  _310
REMARK  132  A    between atoms: _310  and  _311
REMARK  133  A    between atoms: _314  and  _316
REMARK  134  A    between atoms: _316  and  _317
REMARK  135  A    between atoms: _316  and  _319
REMARK  136  A    between atoms: _319  and  _320
REMARK  137  A    between atoms: _322  and  _324
REMARK  138  A    between atoms: _324  and  _325
REMARK  139  A    between atoms: _324  and  _327
REMARK  140  A    between atoms: _327  and  _328
REMARK  141  A    between atoms: _331  and  _333
REMARK  142  A    between atoms: _333  and  _334
REMARK  143  A    between atoms: _333  and  _336
REMARK  144  A    between atoms: _336  and  _337
REMARK  145  A    between atoms: _340  and  _342
REMARK  146  A    between atoms: _342  and  _343
REMARK  147  A    between atoms: _342  and  _345
REMARK  148  A    between atoms: _345  and  _346
REMARK  149  A    between atoms: _351  and  _353
REMARK  150  A    between atoms: _353  and  _354
REMARK  151  A    between atoms: _353  and  _356
REMARK  152  A    between atoms: _356  and  _357
REMARK  153  A    between atoms: _362  and  _363
REMARK  154  A    between atoms: _365  and  _367
REMARK  155  A    between atoms: _367  and  _368
REMARK  156  A    between atoms: _367  and  _370
REMARK  157  A    between atoms: _370  and  _371
REMARK  158  A    between atoms: _374  and  _376
REMARK  159  A    between atoms: _376  and  _377
REMARK  160  A    between atoms: _376  and  _379
REMARK  161  A    between atoms: _382  and  _384
REMARK  162  A    between atoms: _384  and  _385
REMARK  163  A    between atoms: _384  and  _387
REMARK  164  A    between atoms: _387  and  _388
REMARK  165  A    between atoms: _388  and  _389
REMARK  166  A    between atoms: _391  and  _393
REMARK  167  A    between atoms: _393  and  _394
REMARK  168  A    between atoms: _393  and  _396
REMARK  169  A    between atoms: _396  and  _397
REMARK  170  A    between atoms: _397  and  _398
REMARK  171  A    between atoms: _401  and  _403
REMARK  172  A    between atoms: _403  and  _404
REMARK  173  A    between atoms: _403  and  _406
REMARK  174  A    between atoms: _406  and  _407
REMARK  175  A    between atoms: _410  and  _412
REMARK  176  A    between atoms: _412  and  _413
REMARK  177  A    between atoms: _412  and  _415
REMARK  178  A    between atoms: _415  and  _416
REMARK  179  A    between atoms: _416  and  _417
REMARK  180  A    between atoms: _419  and  _421
REMARK  181  A    between atoms: _421  and  _422
REMARK  182  A    between atoms: _421  and  _424
REMARK  183  A    between atoms: _424  and  _425
REMARK  184  A    between atoms: _428  and  _430
REMARK  185  A    between atoms: _430  and  _431
REMARK  186  A    between atoms: _434  and  _436
REMARK  187  A    between atoms: _436  and  _437
REMARK  188  A    between atoms: _436  and  _439
REMARK  189  A    between atoms: _439  and  _440
REMARK  190  A    between atoms: _445  and  _447
REMARK  191  A    between atoms: _447  and  _448
REMARK  192  A    between atoms: _447  and  _450
REMARK  193  A    between atoms: _450  and  _451
REMARK  194  A    between atoms: _451  and  _452
REMARK  195  A    between atoms: _457  and  _459
REMARK  196  A    between atoms: _459  and  _460
REMARK  197  A    between atoms: _462  and  _464
REMARK  198  A    between atoms: _464  and  _465
REMARK  199  A    between atoms: _464  and  _467
REMARK  200  A    between atoms: _467  and  _468
REMARK  201  A    between atoms: _471  and  _473
REMARK  202  A    between atoms: _473  and  _474
REMARK  203  A    between atoms: _477  and  _479
REMARK  204  A    between atoms: _479  and  _480
REMARK  205  A    between atoms: _479  and  _482
REMARK  206  A    between atoms: _482  and  _483
REMARK  207  A    between atoms: _486  and  _488
REMARK  208  A    between atoms: _488  and  _489
REMARK  209  A    between atoms: _488  and  _491
REMARK  210  A    between atoms: _491  and  _492
REMARK  211  A    between atoms: _495  and  _497
REMARK  212  A    between atoms: _497  and  _498
REMARK  213  A    between atoms: _497  and  _500
REMARK  214  A    between atoms: _500  and  _501
REMARK  215  A    between atoms: _506  and  _508
REMARK  216  A    between atoms: _508  and  _509
REMARK  217  A    between atoms: _508  and  _511
REMARK  218  A    between atoms: _511  and  _512
REMARK  219  A    between atoms: _512  and  _513
REMARK  220  A    between atoms: _513  and  _514
REMARK  221  A    between atoms: _523  and  _525
REMARK  222  A    between atoms: _525  and  _526
REMARK  223  A    between atoms: _525  and  _528
REMARK  224  A    between atoms: _528  and  _529
REMARK  225  A    between atoms: _532  and  _534
REMARK  226  A    between atoms: _534  and  _535
REMARK  227  A    between atoms: _534  and  _537
REMARK  228  A    between atoms: _537  and  _538
REMARK  229  A    between atoms: _541  and  _543
REMARK  230  A    between atoms: _543  and  _544
REMARK  231  A    between atoms: _543  and  _546
REMARK  232  A    between atoms: _546  and  _547
REMARK  233  A    between atoms: _549  and  _551
REMARK  234  A    between atoms: _551  and  _552
REMARK  235  A    between atoms: _551  and  _554
REMARK  236  A    between atoms: _554  and  _555
REMARK  237  A    between atoms: _560  and  _562
REMARK  238  A    between atoms: _562  and  _563
REMARK  239  A    between atoms: _562  and  _565
REMARK  240  A    between atoms: _565  and  _566
REMARK  241  A    between atoms: _569  and  _571
REMARK  242  A    between atoms: _571  and  _572
REMARK  243  A    between atoms: _571  and  _574
REMARK  244  A    between atoms: _577  and  _579
REMARK  245  A    between atoms: _579  and  _580
REMARK  246  A    between atoms: _579  and  _582
REMARK  247  A    between atoms: _585  and  _587
REMARK  248  A    between atoms: _587  and  _588
REMARK  249  A    between atoms: _587  and  _590
REMARK  250  A    between atoms: _590  and  _591
REMARK  251  A    between atoms: _591  and  _592
REMARK  252  A    between atoms: _592  and  _593
REMARK  253  A    between atoms: _593  and  _594
REMARK  254  A    between atoms: _598  and  _600
REMARK  255  A    between atoms: _600  and  _601
REMARK  256  A    between atoms: _600  and  _603
REMARK  257  A    between atoms: _603  and  _604
REMARK  258  A    between atoms: _604  and  _605
REMARK  259  A    between atoms: _605  and  _606
REMARK  260  A    between atoms: _606  and  _607
REMARK  261  A    between atoms: _611  and  _613
REMARK  262  A    between atoms: _613  and  _614
REMARK  263  A    between atoms: _613  and  _616
REMARK  264  A    between atoms: _616  and  _617
REMARK  265  A    between atoms: _620  and  _622
REMARK  266  A    between atoms: _622  and  _623
REMARK  267  A    between atoms: _622  and  _625
REMARK  268  A    between atoms: _625  and  _626
REMARK  269  A    between atoms: _629  and  _631
REMARK  270  A    between atoms: _631  and  _632
REMARK  271  A    between atoms: _631  and  _634
REMARK  272  A    between atoms: _634  and  _635
REMARK  273  A    between atoms: _638  and  _640
REMARK  274  A    between atoms: _640  and  _641
REMARK  275  A    between atoms: _640  and  _643
REMARK  276  A    between atoms: _643  and  _644
REMARK  277  A    between atoms: _650  and  _652
REMARK  278  A    between atoms: _652  and  _653
REMARK  279  A    between atoms: _655  and  _657
REMARK  280  A    between atoms: _657  and  _658
REMARK  281  A    between atoms: _657  and  _660
REMARK  282  A    between atoms: _660  and  _661
REMARK  283  A    between atoms: _664  and  _666
REMARK  284  A    between atoms: _666  and  _667
REMARK  285  A    between atoms: _670  and  _672
REMARK  286  A    between atoms: _672  and  _673
REMARK  287  A    between atoms: _672  and  _675
REMARK  288  A    between atoms: _675  and  _676
REMARK  289  A    between atoms: _676  and  _677
REMARK  290  A    between atoms: _679  and  _681
REMARK  291  A    between atoms: _681  and  _682
REMARK  292  A    between atoms: _681  and  _684
REMARK  293  A    between atoms: _684  and  _685
REMARK  294  A    between atoms: _685  and  _686
REMARK  295  A    between atoms: _688  and  _690
REMARK  296  A    between atoms: _690  and  _691
REMARK  297  A    between atoms: _690  and  _693
REMARK  298  A    between atoms: _693  and  _694
REMARK  299  A    between atoms: _697  and  _699
REMARK  300  A    between atoms: _699  and  _700
REMARK  301  A    between atoms: _699  and  _702
REMARK  302  A    between atoms: _702  and  _703
REMARK  303  A    between atoms: _706  and  _708
REMARK  304  A    between atoms: _708  and  _709
REMARK  305  A    between atoms: _708  and  _711
REMARK  306  A    between atoms: _711  and  _712
REMARK  307  A    between atoms: _712  and  _713
REMARK                            x       y       z     vdW  Elec       q    Type
REMARK                         _______ _______ _______ _____ _____    ______ ____
ROOT
ATOM      1  CA  GLU A   1      64.520  35.380   3.442  0.00  0.00    +0.134 C 
ENDROOT
BRANCH   1   2
ATOM      2  N   GLU A   1      65.159  35.554   2.138  0.00  0.00    -0.239 NA
ATOM      3  H   GLU A   1      64.584  35.905   1.345  0.00  0.00    +0.142 HD
ENDBRANCH   1   2
BRANCH   1   4
ATOM      4  C   GLU A   1      64.374  33.897   3.794  0.00  0.00    +0.224 C 
ATOM      5  O   GLU A   1      64.540  33.509   4.956  0.00  0.00    -0.287 OA
ENDBRANCH   1   4
BRANCH   1   6
ATOM      6  CB  GLU A   1      63.146  36.060   3.462  0.00  0.00    +0.037 C 
BRANCH   6   7
ATOM      7  CG  GLU A   1      62.484  36.086   4.831  0.00  0.00    +0.116 C 
BRANCH   7   8
ATOM      8  CD  GLU A   1      60.985  35.869   4.768  0.00  0.00    +0.365 C 
ATOM      9  OE2 GLU A   1      60.391  35.484   5.804  0.00  0.00    -0.246 OA
ATOM     10  OE1 GLU A   1      60.394  36.077   3.688  0.00  0.00    -0.246 OA
ENDBRANCH   7   8
ENDBRANCH   6   7
ENDBRANCH   1   6
TORSDOF 5
REMARK  Name = ../refined-set-2016/3npc/3npc_pocket.pdb
REMARK  307 active torsions:
REMARK  status: ('A' for Active; 'I' for Inactive)
REMARK    1  A    between atoms: _1  and  _3
REMARK    2  A    between atoms: _3  and  _4
REMARK    3  A    between atoms: _3  and  _6
REMARK    4  A    between atoms: _6  and  _7
REMARK    5  A    between atoms: _10  and  _12
REMARK    6  A    between atoms: _12  and  _13
REMARK    7  A    between atoms: _15  and  _17
REMARK    8  A    between atoms: _17  and  _18
REMARK    9  A    between atoms: _17  and  _20
REMARK   10  A    between atoms: _20  and  _21
REMARK   11  A    between atoms: _21  and  _22
REMARK   12  A    between atoms: _27  and  _29
REMARK   13  A    between atoms: _29  and  _30
REMARK   14  A    between atoms: _29  and  _32
REMARK   15  A    between atoms: _32  and  _33
REMARK   16  A    between atoms: _36  and  _38
REMARK   17  A    between atoms: _38  and  _39
REMARK   18  A    between atoms: _38  and  _41
REMARK   19  A    between atoms: _44  and  _46
REMARK   20  A    between atoms: _46  and  _47
REMARK   21  A    between atoms: _46  and  _49
REMARK   22  A    between atoms: _51  and  _53
REMARK   23  A    between atoms: _53  and  _54
REMARK   24  A    between atoms: _57  and  _59
REMARK   25  A    between atoms: _59  and  _60
REMARK   26  A    between atoms: _59  and  _62
REMARK   27  A    between atoms: _62  and  _63
REMARK   28  A    between atoms: _68  and  _70
REMARK   29  A    between atoms: _70  and  _71
REMARK   30  A    between atoms: _70  and  _73
REMARK   31  A    between atoms: _76  and  _78
REMARK   32  A    between atoms: _78  and  _79
REMARK   33  A    between atoms: _82  and  _84
REMARK   34  A    between atoms: _84  and  _85
REMARK   35  A    between atoms: _84  and  _87
REMARK   36  A    between atoms: _90  and  _92
REMARK   37  A    between atoms: _92  and  _93
REMARK   38  A    between atoms: _92  and  _95
REMARK   39  A    between atoms: _95  and  _96
REMARK   40  A    between atoms: _96  and  _97
REMARK   41  A    between atoms: _97  and  _98
REMARK   42  A    between atoms: _98  and  _99
REMARK   43  A    between atoms: _103  and  _105
REMARK   44  A    between atoms: _105  and  _106
REMARK   45  A    between atoms: _105  and  _108
REMARK   46  A    between atoms: _108  and  _109
REMARK   47  A    between atoms: _109  and  _110
REMARK   48  A    between atoms: _110  and  _111
REMARK   49  A    between atoms: _111  and  _112
REMARK   50  A    between atoms: _116  and  _118
REMARK   51  A    between atoms: _118  and  _119
REMARK   52  A    between atoms: _118  and  _121
REMARK   53  A    between atoms: _121  and  _122
REMARK   54  A    between atoms: _125  and  _127
REMARK   55  A    between atoms: _127  and  _128
REMARK   56  A    between atoms: _127  and  _130
REMARK   57  A    between atoms: _130  and  _131
REMARK   58  A    between atoms: _134  and  _136
REMARK   59  A    between atoms: _136  and  _137
REMARK   60  A    between atoms: _136  and  _139
REMARK   61  A    between atoms: _139  and  _140
REMARK   62  A    between atoms: _145  and  _147
REMARK   63  A    between atoms: _147  and  _148
REMARK   64  A    between atoms: _147  and  _150
REMARK   65  A    between atoms: _150  and  _151
REMARK   66  A    between atoms: _151  and  _152
REMARK   67  A    between atoms: _152  and  _153
REMARK   68  A    between atoms: _153  and  _154
REMARK   69  A    between atoms: _158  and  _160
REMARK   70  A    between atoms: _160  and  _161
REMARK   71  A    between atoms: _160  and  _163
REMARK   72  A    between atoms: _163  and  _164
REMARK   73  A    between atoms: _164  and  _165
REMARK   74  A    between atoms: _165  and  _166
REMARK   75  A    between atoms: _175  and  _177
REMARK   76  A    between atoms: _177  and  _178
REMARK   77  A    between atoms: _181  and  _183
REMARK   78  A    between atoms: _183  and  _184
REMARK   79  A    between atoms: _183  and  _186
REMARK   80  A    between atoms: _186  and  _187
REMARK   81  A    between atoms: _192  and  _193
REMARK   82  A    between atoms: _195  and  _197
REMARK   83  A    between atoms: _197  and  _198
REMARK   84  A    between atoms: _197  and  _200
REMARK   85  A    between atoms: _200  and  _201
REMARK   86  A    between atoms: _201  and  _202
REMARK   87  A    between atoms: _202  and  _203
REMARK   88  A    between atoms: _212  and  _214
REMARK   89  A    between atoms: _214  and  _215
REMARK   90  A    between atoms: _214  and  _217
REMARK   91  A    between atoms: _217  and  _218
REMARK   92  A    between atoms: _218  and  _219
REMARK   93  A    between atoms: _222  and  _224
REMARK   94  A    between atoms: _224  and  _225
REMARK   95  A    between atoms: _224  and  _227
REMARK   96  A    between atoms: _227  and  _228
REMARK   97  A    between atoms: _231  and  _233
REMARK   98  A    between atoms: _233  and  _234
REMARK   99  A    between atoms: _233  and  _236
REMARK  100  A    between atoms: _239  and  _241
REMARK  101  A    between atoms: _241  and  _242
REMARK  102  A    between atoms: _241  and  _244
REMARK  103  A    between atoms: _244  and  _245
REMARK  104  A    between atoms: _248  and  _250
REMARK  105  A    between atoms: _250  and  _251
REMARK  106  A    between atoms: _250  and  _253
REMARK  107  A    between atoms: _253  and  _254
REMARK  108  A    between atoms: _257  and  _259
REMARK  109  A    between atoms: _259  and  _260
REMARK  110  A    between atoms: _259  and  _262
REMARK  111  A    between atoms: _262  and  _263
REMARK  112  A    between atoms: _263  and  _264
REMARK  113  A    between atoms: _264  and  _265
REMARK  114  A    between atoms: _265  and  _266
REMARK  115  A    between atoms: _270  and  _272
REMARK  116  A    between atoms: _272  and  _273
REMARK  117  A    between atoms: _272  and  _275
REMARK  118  A    between atoms: _277  and  _279
REMARK  119  A    between atoms: _279  and  _280
REMARK  120  A    between atoms: _279  and  _282
REMARK  121  A    between atoms: _285  and  _287
REMARK  122  A    between atoms: _287  and  _288
REMARK  123  A    between atoms: _287  and  _290
REMARK  124  A    between atoms: _290  and  _291
REMARK  125  A    between atoms: _296  and  _298
REMARK  126  A    between atoms: _298  and  _299
REMARK  127  A    between atoms: _298  and  _301
REMARK  128  A    between atoms: _301  and  _302
REMARK  129  A    between atoms: _305  and  _307
REMARK  130  A    between atoms: _307  and  _308
REMARK  131  A    between atoms: _307  and  _310
REMARK  132  A    between atoms: _310  and  _311
REMARK  133  A    between atoms: _314  and  _316
REMARK  134  A    between atoms: _316  and  _317
REMARK  135  A    between atoms: _316  and  _319
REMARK  136  A    between atoms: _319  and  _320
REMARK  137  A    between atoms: _322  and  _324
REMARK  138  A    between atoms: _324  and  _325
REMARK  139  A    between atoms: _324  and  _327
REMARK  140  A    between atoms: _327  and  _328
REMARK  141  A    between atoms: _331  and  _333
REMARK  142  A    between atoms: _333  and  _334
REMARK  143  A    between atoms: _333  and  _336
REMARK  144  A    between atoms: _336  and  _337
REMARK  145  A    between atoms: _340  and  _342
REMARK  146  A    between atoms: _342  and  _343
REMARK  147  A    between atoms: _342  and  _345
REMARK  148  A    between atoms: _345  and  _346
REMARK  149  A    between atoms: _351  and  _353
REMARK  150  A    between atoms: _353  and  _354
REMARK  151  A    between atoms: _353  and  _356
REMARK  152  A    between atoms: _356  and  _357
REMARK  153  A    between atoms: _362  and  _363
REMARK  154  A    between atoms: _365  and  _367
REMARK  155  A    between atoms: _367  and  _368
REMARK  156  A    between atoms: _367  and  _370
REMARK  157  A    between atoms: _370  and  _371
REMARK  158  A    between atoms: _374  and  _376
REMARK  159  A    between atoms: _376  and  _377
REMARK  160  A    between atoms: _376  and  _379
REMARK  161  A    between atoms: _382  and  _384
REMARK  162  A    between atoms: _384  and  _385
REMARK  163  A    between atoms: _384  and  _387
REMARK  164  A    between atoms: _387  and  _388
REMARK  165  A    between atoms: _388  and  _389
REMARK  166  A    between atoms: _391  and  _393
REMARK  167  A    between atoms: _393  and  _394
REMARK  168  A    between atoms: _393  and  _396
REMARK  169  A    between atoms: _396  and  _397
REMARK  170  A    between atoms: _397  and  _398
REMARK  171  A    between atoms: _401  and  _403
REMARK  172  A    between atoms: _403  and  _404
REMARK  173  A    between atoms: _403  and  _406
REMARK  174  A    between atoms: _406  and  _407
REMARK  175  A    between atoms: _410  and  _412
REMARK  176  A    between atoms: _412  and  _413
REMARK  177  A    between atoms: _412  and  _415
REMARK  178  A    between atoms: _415  and  _416
REMARK  179  A    between atoms: _416  and  _417
REMARK  180  A    between atoms: _419  and  _421
REMARK  181  A    between atoms: _421  and  _422
REMARK  182  A    between atoms: _421  and  _424
REMARK  183  A    between atoms: _424  and  _425
REMARK  184  A    between atoms: _428  and  _430
REMARK  185  A    between atoms: _430  and  _431
REMARK  186  A    between atoms: _434  and  _436
REMARK  187  A    between atoms: _436  and  _437
REMARK  188  A    between atoms: _436  and  _439
REMARK  189  A    between atoms: _439  and  _440
REMARK  190  A    between atoms: _445  and  _447
REMARK  191  A    between atoms: _447  and  _448
REMARK  192  A    between atoms: _447  and  _450
REMARK  193  A    between atoms: _450  and  _451
REMARK  194  A    between atoms: _451  and  _452
REMARK  195  A    between atoms: _457  and  _459
REMARK  196  A    between atoms: _459  and  _460
REMARK  197  A    between atoms: _462  and  _464
REMARK  198  A    between atoms: _464  and  _465
REMARK  199  A    between atoms: _464  and  _467
REMARK  200  A    between atoms: _467  and  _468
REMARK  201  A    between atoms: _471  and  _473
REMARK  202  A    between atoms: _473  and  _474
REMARK  203  A    between atoms: _477  and  _479
REMARK  204  A    between atoms: _479  and  _480
REMARK  205  A    between atoms: _479  and  _482
REMARK  206  A    between atoms: _482  and  _483
REMARK  207  A    between atoms: _486  and  _488
REMARK  208  A    between atoms: _488  and  _489
REMARK  209  A    between atoms: _488  and  _491
REMARK  210  A    between atoms: _491  and  _492
REMARK  211  A    between atoms: _495  and  _497
REMARK  212  A    between atoms: _497  and  _498
REMARK  213  A    between atoms: _497  and  _500
REMARK  214  A    between atoms: _500  and  _501
REMARK  215  A    between atoms: _506  and  _508
REMARK  216  A    between atoms: _508  and  _509
REMARK  217  A    between atoms: _508  and  _511
REMARK  218  A    between atoms: _511  and  _512
REMARK  219  A    between atoms: _512  and  _513
REMARK  220  A    between atoms: _513  and  _514
REMARK  221  A    between atoms: _523  and  _525
REMARK  222  A    between atoms: _525  and  _526
REMARK  223  A    between atoms: _525  and  _528
REMARK  224  A    between atoms: _528  and  _529
REMARK  225  A    between atoms: _532  and  _534
REMARK  226  A    between atoms: _534  and  _535
REMARK  227  A    between atoms: _534  and  _537
REMARK  228  A    between atoms: _537  and  _538
REMARK  229  A    between atoms: _541  and  _543
REMARK  230  A    between atoms: _543  and  _544
REMARK  231  A    between atoms: _543  and  _546
REMARK  232  A    between atoms: _546  and  _547
REMARK  233  A    between atoms: _549  and  _551
REMARK  234  A    between atoms: _551  and  _552
REMARK  235  A    between atoms: _551  and  _554
REMARK  236  A    between atoms: _554  and  _555
REMARK  237  A    between atoms: _560  and  _562
REMARK  238  A    between atoms: _562  and  _563
REMARK  239  A    between atoms: _562  and  _565
REMARK  240  A    between atoms: _565  and  _566
REMARK  241  A    between atoms: _569  and  _571
REMARK  242  A    between atoms: _571  and  _572
REMARK  243  A    between atoms: _571  and  _574
REMARK  244  A    between atoms: _577  and  _579
REMARK  245  A    between atoms: _579  and  _580
REMARK  246  A    between atoms: _579  and  _582
REMARK  247  A    between atoms: _585  and  _587
REMARK  248  A    between atoms: _587  and  _588
REMARK  249  A    between atoms: _587  and  _590
REMARK  250  A    between atoms: _590  and  _591
REMARK  251  A    between atoms: _591  and  _592
REMARK  252  A    between atoms: _592  and  _593
REMARK  253  A    between atoms: _593  and  _594
REMARK  254  A    between atoms: _598  and  _600
REMARK  255  A    between atoms: _600  and  _601
REMARK  256  A    between atoms: _600  and  _603
REMARK  257  A    between atoms: _603  and  _604
REMARK  258  A    between atoms: _604  and  _605
REMARK  259  A    between atoms: _605  and  _606
REMARK  260  A    between atoms: _606  and  _607
REMARK  261  A    between atoms: _611  and  _613
REMARK  262  A    between atoms: _613  and  _614
REMARK  263  A    between atoms: _613  and  _616
REMARK  264  A    between atoms: _616  and  _617
REMARK  265  A    between atoms: _620  and  _622
REMARK  266  A    between atoms: _622  and  _623
REMARK  267  A    between atoms: _622  and  _625
REMARK  268  A    between atoms: _625  and  _626
REMARK  269  A    between atoms: _629  and  _631
REMARK  270  A    between atoms: _631  and  _632
REMARK  271  A    between atoms: _631  and  _634
REMARK  272  A    between atoms: _634  and  _635
REMARK  273  A    between atoms: _638  and  _640
REMARK  274  A    between atoms: _640  and  _641
REMARK  275  A    between atoms: _640  and  _643
REMARK  276  A    between atoms: _643  and  _644
REMARK  277  A    between atoms: _650  and  _652
REMARK  278  A    between atoms: _652  and  _653
REMARK  279  A    between atoms: _655  and  _657
REMARK  280  A    between atoms: _657  and  _658
REMARK  281  A    between atoms: _657  and  _660
REMARK  282  A    between atoms: _660  and  _661
REMARK  283  A    between atoms: _664  and  _666
REMARK  284  A    between atoms: _666  and  _667
REMARK  285  A    between atoms: _670  and  _672
REMARK  286  A    between atoms: _672  and  _673
REMARK  287  A    between atoms: _672  and  _675
REMARK  288  A    between atoms: _675  and  _676
REMARK  289  A    between atoms: _676  and  _677
REMARK  290  A    between atoms: _679  and  _681
REMARK  291  A    between atoms: _681  and  _682
REMARK  292  A    between atoms: _681  and  _684
REMARK  293  A    between atoms: _684  and  _685
REMARK  294  A    between atoms: _685  and  _686
REMARK  295  A    between atoms: _688  and  _690
REMARK  296  A    between atoms: _690  and  _691
REMARK  297  A    between atoms: _690  and  _693
REMARK  298  A    between atoms: _693  and  _694
REMARK  299  A    between atoms: _697  and  _699
REMARK  300  A    between atoms: _699  and  _700
REMARK  301  A    between atoms: _699  and  _702
REMARK  302  A    between atoms: _702  and  _703
REMARK  303  A    between atoms: _706  and  _708
REMARK  304  A    between atoms: _708  and  _709
REMARK  305  A    between atoms: _708  and  _711
REMARK  306  A    between atoms: _711  and  _712
REMARK  307  A    between atoms: _712  and  _713
REMARK                            x       y       z     vdW  Elec       q    Type
REMARK                         _______ _______ _______ _____ _____    ______ ____
ROOT
ATOM      1  O   HOH     1      54.365  52.794   1.328  0.00  0.00    +0.000 OA
ENDROOT
TORSDOF 0
REMARK  Name = ../refined-set-2016/3npc/3npc_pocket.pdb
REMARK  307 active torsions:
REMARK  status: ('A' for Active; 'I' for Inactive)
REMARK    1  A    between atoms: _1  and  _3
REMARK    2  A    between atoms: _3  and  _4
REMARK    3  A    between atoms: _3  and  _6
REMARK    4  A    between atoms: _6  and  _7
REMARK    5  A    between atoms: _10  and  _12
REMARK    6  A    between atoms: _12  and  _13
REMARK    7  A    between atoms: _15  and  _17
REMARK    8  A    between atoms: _17  and  _18
REMARK    9  A    between atoms: _17  and  _20
REMARK   10  A    between atoms: _20  and  _21
REMARK   11  A    between atoms: _21  and  _22
REMARK   12  A    between atoms: _27  and  _29
REMARK   13  A    between atoms: _29  and  _30
REMARK   14  A    between atoms: _29  and  _32
REMARK   15  A    between atoms: _32  and  _33
REMARK   16  A    between atoms: _36  and  _38
REMARK   17  A    between atoms: _38  and  _39
REMARK   18  A    between atoms: _38  and  _41
REMARK   19  A    between atoms: _44  and  _46
REMARK   20  A    between atoms: _46  and  _47
REMARK   21  A    between atoms: _46  and  _49
REMARK   22  A    between atoms: _51  and  _53
REMARK   23  A    between atoms: _53  and  _54
REMARK   24  A    between atoms: _57  and  _59
REMARK   25  A    between atoms: _59  and  _60
REMARK   26  A    between atoms: _59  and  _62
REMARK   27  A    between atoms: _62  and  _63
REMARK   28  A    between atoms: _68  and  _70
REMARK   29  A    between atoms: _70  and  _71
REMARK   30  A    between atoms: _70  and  _73
REMARK   31  A    between atoms: _76  and  _78
REMARK   32  A    between atoms: _78  and  _79
REMARK   33  A    between atoms: _82  and  _84
REMARK   34  A    between atoms: _84  and  _85
REMARK   35  A    between atoms: _84  and  _87
REMARK   36  A    between atoms: _90  and  _92
REMARK   37  A    between atoms: _92  and  _93
REMARK   38  A    between atoms: _92  and  _95
REMARK   39  A    between atoms: _95  and  _96
REMARK   40  A    between atoms: _96  and  _97
REMARK   41  A    between atoms: _97  and  _98
REMARK   42  A    between atoms: _98  and  _99
REMARK   43  A    between atoms: _103  and  _105
REMARK   44  A    between atoms: _105  and  _106
REMARK   45  A    between atoms: _105  and  _108
REMARK   46  A    between atoms: _108  and  _109
REMARK   47  A    between atoms: _109  and  _110
REMARK   48  A    between atoms: _110  and  _111
REMARK   49  A    between atoms: _111  and  _112
REMARK   50  A    between atoms: _116  and  _118
REMARK   51  A    between atoms: _118  and  _119
REMARK   52  A    between atoms: _118  and  _121
REMARK   53  A    between atoms: _121  and  _122
REMARK   54  A    between atoms: _125  and  _127
REMARK   55  A    between atoms: _127  and  _128
REMARK   56  A    between atoms: _127  and  _130
REMARK   57  A    between atoms: _130  and  _131
REMARK   58  A    between atoms: _134  and  _136
REMARK   59  A    between atoms: _136  and  _137
REMARK   60  A    between atoms: _136  and  _139
REMARK   61  A    between atoms: _139  and  _140
REMARK   62  A    between atoms: _145  and  _147
REMARK   63  A    between atoms: _147  and  _148
REMARK   64  A    between atoms: _147  and  _150
REMARK   65  A    between atoms: _150  and  _151
REMARK   66  A    between atoms: _151  and  _152
REMARK   67  A    between atoms: _152  and  _153
REMARK   68  A    between atoms: _153  and  _154
REMARK   69  A    between atoms: _158  and  _160
REMARK   70  A    between atoms: _160  and  _161
REMARK   71  A    between atoms: _160  and  _163
REMARK   72  A    between atoms: _163  and  _164
REMARK   73  A    between atoms: _164  and  _165
REMARK   74  A    between atoms: _165  and  _166
REMARK   75  A    between atoms: _175  and  _177
REMARK   76  A    between atoms: _177  and  _178
REMARK   77  A    between atoms: _181  and  _183
REMARK   78  A    between atoms: _183  and  _184
REMARK   79  A    between atoms: _183  and  _186
REMARK   80  A    between atoms: _186  and  _187
REMARK   81  A    between atoms: _192  and  _193
REMARK   82  A    between atoms: _195  and  _197
REMARK   83  A    between atoms: _197  and  _198
REMARK   84  A    between atoms: _197  and  _200
REMARK   85  A    between atoms: _200  and  _201
REMARK   86  A    between atoms: _201  and  _202
REMARK   87  A    between atoms: _202  and  _203
REMARK   88  A    between atoms: _212  and  _214
REMARK   89  A    between atoms: _214  and  _215
REMARK   90  A    between atoms: _214  and  _217
REMARK   91  A    between atoms: _217  and  _218
REMARK   92  A    between atoms: _218  and  _219
REMARK   93  A    between atoms: _222  and  _224
REMARK   94  A    between atoms: _224  and  _225
REMARK   95  A    between atoms: _224  and  _227
REMARK   96  A    between atoms: _227  and  _228
REMARK   97  A    between atoms: _231  and  _233
REMARK   98  A    between atoms: _233  and  _234
REMARK   99  A    between atoms: _233  and  _236
REMARK  100  A    between atoms: _239  and  _241
REMARK  101  A    between atoms: _241  and  _242
REMARK  102  A    between atoms: _241  and  _244
REMARK  103  A    between atoms: _244  and  _245
REMARK  104  A    between atoms: _248  and  _250
REMARK  105  A    between atoms: _250  and  _251
REMARK  106  A    between atoms: _250  and  _253
REMARK  107  A    between atoms: _253  and  _254
REMARK  108  A    between atoms: _257  and  _259
REMARK  109  A    between atoms: _259  and  _260
REMARK  110  A    between atoms: _259  and  _262
REMARK  111  A    between atoms: _262  and  _263
REMARK  112  A    between atoms: _263  and  _264
REMARK  113  A    between atoms: _264  and  _265
REMARK  114  A    between atoms: _265  and  _266
REMARK  115  A    between atoms: _270  and  _272
REMARK  116  A    between atoms: _272  and  _273
REMARK  117  A    between atoms: _272  and  _275
REMARK  118  A    between atoms: _277  and  _279
REMARK  119  A    between atoms: _279  and  _280
REMARK  120  A    between atoms: _279  and  _282
REMARK  121  A    between atoms: _285  and  _287
REMARK  122  A    between atoms: _287  and  _288
REMARK  123  A    between atoms: _287  and  _290
REMARK  124  A    between atoms: _290  and  _291
REMARK  125  A    between atoms: _296  and  _298
REMARK  126  A    between atoms: _298  and  _299
REMARK  127  A    between atoms: _298  and  _301
REMARK  128  A    between atoms: _301  and  _302
REMARK  129  A    between atoms: _305  and  _307
REMARK  130  A    between atoms: _307  and  _308
REMARK  131  A    between atoms: _307  and  _310
REMARK  132  A    between atoms: _310  and  _311
REMARK  133  A    between atoms: _314  and  _316
REMARK  134  A    between atoms: _316  and  _317
REMARK  135  A    between atoms: _316  and  _319
REMARK  136  A    between atoms: _319  and  _320
REMARK  137  A    between atoms: _322  and  _324
REMARK  138  A    between atoms: _324  and  _325
REMARK  139  A    between atoms: _324  and  _327
REMARK  140  A    between atoms: _327  and  _328
REMARK  141  A    between atoms: _331  and  _333
REMARK  142  A    between atoms: _333  and  _334
REMARK  143  A    between atoms: _333  and  _336
REMARK  144  A    between atoms: _336  and  _337
REMARK  145  A    between atoms: _340  and  _342
REMARK  146  A    between atoms: _342  and  _343
REMARK  147  A    between atoms: _342  and  _345
REMARK  148  A    between atoms: _345  and  _346
REMARK  149  A    between atoms: _351  and  _353
REMARK  150  A    between atoms: _353  and  _354
REMARK  151  A    between atoms: _353  and  _356
REMARK  152  A    between atoms: _356  and  _357
REMARK  153  A    between atoms: _362  and  _363
REMARK  154  A    between atoms: _365  and  _367
REMARK  155  A    between atoms: _367  and  _368
REMARK  156  A    between atoms: _367  and  _370
REMARK  157  A    between atoms: _370  and  _371
REMARK  158  A    between atoms: _374  and  _376
REMARK  159  A    between atoms: _376  and  _377
REMARK  160  A    between atoms: _376  and  _379
REMARK  161  A    between atoms: _382  and  _384
REMARK  162  A    between atoms: _384  and  _385
REMARK  163  A    between atoms: _384  and  _387
REMARK  164  A    between atoms: _387  and  _388
REMARK  165  A    between atoms: _388  and  _389
REMARK  166  A    between atoms: _391  and  _393
REMARK  167  A    between atoms: _393  and  _394
REMARK  168  A    between atoms: _393  and  _396
REMARK  169  A    between atoms: _396  and  _397
REMARK  170  A    between atoms: _397  and  _398
REMARK  171  A    between atoms: _401  and  _403
REMARK  172  A    between atoms: _403  and  _404
REMARK  173  A    between atoms: _403  and  _406
REMARK  174  A    between atoms: _406  and  _407
REMARK  175  A    between atoms: _410  and  _412
REMARK  176  A    between atoms: _412  and  _413
REMARK  177  A    between atoms: _412  and  _415
REMARK  178  A    between atoms: _415  and  _416
REMARK  179  A    between atoms: _416  and  _417
REMARK  180  A    between atoms: _419  and  _421
REMARK  181  A    between atoms: _421  and  _422
REMARK  182  A    between atoms: _421  and  _424
REMARK  183  A    between atoms: _424  and  _425
REMARK  184  A    between atoms: _428  and  _430
REMARK  185  A    between atoms: _430  and  _431
REMARK  186  A    between atoms: _434  and  _436
REMARK  187  A    between atoms: _436  and  _437
REMARK  188  A    between atoms: _436  and  _439
REMARK  189  A    between atoms: _439  and  _440
REMARK  190  A    between atoms: _445  and  _447
REMARK  191  A    between atoms: _447  and  _448
REMARK  192  A    between atoms: _447  and  _450
REMARK  193  A    between atoms: _450  and  _451
REMARK  194  A    between atoms: _451  and  _452
REMARK  195  A    between atoms: _457  and  _459
REMARK  196  A    between atoms: _459  and  _460
REMARK  197  A    between atoms: _462  and  _464
REMARK  198  A    between atoms: _464  and  _465
REMARK  199  A    between atoms: _464  and  _467
REMARK  200  A    between atoms: _467  and  _468
REMARK  201  A    between atoms: _471  and  _473
REMARK  202  A    between atoms: _473  and  _474
REMARK  203  A    between atoms: _477  and  _479
REMARK  204  A    between atoms: _479  and  _480
REMARK  205  A    between atoms: _479  and  _482
REMARK  206  A    between atoms: _482  and  _483
REMARK  207  A    between atoms: _486  and  _488
REMARK  208  A    between atoms: _488  and  _489
REMARK  209  A    between atoms: _488  and  _491
REMARK  210  A    between atoms: _491  and  _492
REMARK  211  A    between atoms: _495  and  _497
REMARK  212  A    between atoms: _497  and  _498
REMARK  213  A    between atoms: _497  and  _500
REMARK  214  A    between atoms: _500  and  _501
REMARK  215  A    between atoms: _506  and  _508
REMARK  216  A    between atoms: _508  and  _509
REMARK  217  A    between atoms: _508  and  _511
REMARK  218  A    between atoms: _511  and  _512
REMARK  219  A    between atoms: _512  and  _513
REMARK  220  A    between atoms: _513  and  _514
REMARK  221  A    between atoms: _523  and  _525
REMARK  222  A    between atoms: _525  and  _526
REMARK  223  A    between atoms: _525  and  _528
REMARK  224  A    between atoms: _528  and  _529
REMARK  225  A    between atoms: _532  and  _534
REMARK  226  A    between atoms: _534  and  _535
REMARK  227  A    between atoms: _534  and  _537
REMARK  228  A    between atoms: _537  and  _538
REMARK  229  A    between atoms: _541  and  _543
REMARK  230  A    between atoms: _543  and  _544
REMARK  231  A    between atoms: _543  and  _546
REMARK  232  A    between atoms: _546  and  _547
REMARK  233  A    between atoms: _549  and  _551
REMARK  234  A    between atoms: _551  and  _552
REMARK  235  A    between atoms: _551  and  _554
REMARK  236  A    between atoms: _554  and  _555
REMARK  237  A    between atoms: _560  and  _562
REMARK  238  A    between atoms: _562  and  _563
REMARK  239  A    between atoms: _562  and  _565
REMARK  240  A    between atoms: _565  and  _566
REMARK  241  A    between atoms: _569  and  _571
REMARK  242  A    between atoms: _571  and  _572
REMARK  243  A    between atoms: _571  and  _574
REMARK  244  A    between atoms: _577  and  _579
REMARK  245  A    between atoms: _579  and  _580
REMARK  246  A    between atoms: _579  and  _582
REMARK  247  A    between atoms: _585  and  _587
REMARK  248  A    between atoms: _587  and  _588
REMARK  249  A    between atoms: _587  and  _590
REMARK  250  A    between atoms: _590  and  _591
REMARK  251  A    between atoms: _591  and  _592
REMARK  252  A    between atoms: _592  and  _593
REMARK  253  A    between atoms: _593  and  _594
REMARK  254  A    between atoms: _598  and  _600
REMARK  255  A    between atoms: _600  and  _601
REMARK  256  A    between atoms: _600  and  _603
REMARK  257  A    between atoms: _603  and  _604
REMARK  258  A    between atoms: _604  and  _605
REMARK  259  A    between atoms: _605  and  _606
REMARK  260  A    between atoms: _606  and  _607
REMARK  261  A    between atoms: _611  and  _613
REMARK  262  A    between atoms: _613  and  _614
REMARK  263  A    between atoms: _613  and  _616
REMARK  264  A    between atoms: _616  and  _617
REMARK  265  A    between atoms: _620  and  _622
REMARK  266  A    between atoms: _622  and  _623
REMARK  267  A    between atoms: _622  and  _625
REMARK  268  A    between atoms: _625  and  _626
REMARK  269  A    between atoms: _629  and  _631
REMARK  270  A    between atoms: _631  and  _632
REMARK  271  A    between atoms: _631  and  _634
REMARK  272  A    between atoms: _634  and  _635
REMARK  273  A    between atoms: _638  and  _640
REMARK  274  A    between atoms: _640  and  _641
REMARK  275  A    between atoms: _640  and  _643
REMARK  276  A    between atoms: _643  and  _644
REMARK  277  A    between atoms: _650  and  _652
REMARK  278  A    between atoms: _652  and  _653
REMARK  279  A    between atoms: _655  and  _657
REMARK  280  A    between atoms: _657  and  _658
REMARK  281  A    between atoms: _657  and  _660
REMARK  282  A    between atoms: _660  and  _661
REMARK  283  A    between atoms: _664  and  _666
REMARK  284  A    between atoms: _666  and  _667
REMARK  285  A    between atoms: _670  and  _672
REMARK  286  A    between atoms: _672  and  _673
REMARK  287  A    between atoms: _672  and  _675
REMARK  288  A    between atoms: _675  and  _676
REMARK  289  A    between atoms: _676  and  _677
REMARK  290  A    between atoms: _679  and  _681
REMARK  291  A    between atoms: _681  and  _682
REMARK  292  A    between atoms: _681  and  _684
REMARK  293  A    between atoms: _684  and  _685
REMARK  294  A    between atoms: _685  and  _686
REMARK  295  A    between atoms: _688  and  _690
REMARK  296  A    between atoms: _690  and  _691
REMARK  297  A    between atoms: _690  and  _693
REMARK  298  A    between atoms: _693  and  _694
REMARK  299  A    between atoms: _697  and  _699
REMARK  300  A    between atoms: _699  and  _700
REMARK  301  A    between atoms: _699  and  _702
REMARK  302  A    between atoms: _702  and  _703
REMARK  303  A    between atoms: _706  and  _708
REMARK  304  A    between atoms: _708  and  _709
REMARK  305  A    between atoms: _708  and  _711
REMARK  306  A    between atoms: _711  and  _712
REMARK  307  A    between atoms: _712  and  _713
REMARK                            x       y       z     vdW  Elec       q    Type
REMARK                         _______ _______ _______ _____ _____    ______ ____
ROOT
ATOM      1  O   HOH     1      47.314  48.665  18.240  0.00  0.00    +0.000 OA
ENDROOT
TORSDOF 0
REMARK  Name = ../refined-set-2016/3npc/3npc_pocket.pdb
REMARK  307 active torsions:
REMARK  status: ('A' for Active; 'I' for Inactive)
REMARK    1  A    between atoms: _1  and  _3
REMARK    2  A    between atoms: _3  and  _4
REMARK    3  A    between atoms: _3  and  _6
REMARK    4  A    between atoms: _6  and  _7
REMARK    5  A    between atoms: _10  and  _12
REMARK    6  A    between atoms: _12  and  _13
REMARK    7  A    between atoms: _15  and  _17
REMARK    8  A    between atoms: _17  and  _18
REMARK    9  A    between atoms: _17  and  _20
REMARK   10  A    between atoms: _20  and  _21
REMARK   11  A    between atoms: _21  and  _22
REMARK   12  A    between atoms: _27  and  _29
REMARK   13  A    between atoms: _29  and  _30
REMARK   14  A    between atoms: _29  and  _32
REMARK   15  A    between atoms: _32  and  _33
REMARK   16  A    between atoms: _36  and  _38
REMARK   17  A    between atoms: _38  and  _39
REMARK   18  A    between atoms: _38  and  _41
REMARK   19  A    between atoms: _44  and  _46
REMARK   20  A    between atoms: _46  and  _47
REMARK   21  A    between atoms: _46  and  _49
REMARK   22  A    between atoms: _51  and  _53
REMARK   23  A    between atoms: _53  and  _54
REMARK   24  A    between atoms: _57  and  _59
REMARK   25  A    between atoms: _59  and  _60
REMARK   26  A    between atoms: _59  and  _62
REMARK   27  A    between atoms: _62  and  _63
REMARK   28  A    between atoms: _68  and  _70
REMARK   29  A    between atoms: _70  and  _71
REMARK   30  A    between atoms: _70  and  _73
REMARK   31  A    between atoms: _76  and  _78
REMARK   32  A    between atoms: _78  and  _79
REMARK   33  A    between atoms: _82  and  _84
REMARK   34  A    between atoms: _84  and  _85
REMARK   35  A    between atoms: _84  and  _87
REMARK   36  A    between atoms: _90  and  _92
REMARK   37  A    between atoms: _92  and  _93
REMARK   38  A    between atoms: _92  and  _95
REMARK   39  A    between atoms: _95  and  _96
REMARK   40  A    between atoms: _96  and  _97
REMARK   41  A    between atoms: _97  and  _98
REMARK   42  A    between atoms: _98  and  _99
REMARK   43  A    between atoms: _103  and  _105
REMARK   44  A    between atoms: _105  and  _106
REMARK   45  A    between atoms: _105  and  _108
REMARK   46  A    between atoms: _108  and  _109
REMARK   47  A    between atoms: _109  and  _110
REMARK   48  A    between atoms: _110  and  _111
REMARK   49  A    between atoms: _111  and  _112
REMARK   50  A    between atoms: _116  and  _118
REMARK   51  A    between atoms: _118  and  _119
REMARK   52  A    between atoms: _118  and  _121
REMARK   53  A    between atoms: _121  and  _122
REMARK   54  A    between atoms: _125  and  _127
REMARK   55  A    between atoms: _127  and  _128
REMARK   56  A    between atoms: _127  and  _130
REMARK   57  A    between atoms: _130  and  _131
REMARK   58  A    between atoms: _134  and  _136
REMARK   59  A    between atoms: _136  and  _137
REMARK   60  A    between atoms: _136  and  _139
REMARK   61  A    between atoms: _139  and  _140
REMARK   62  A    between atoms: _145  and  _147
REMARK   63  A    between atoms: _147  and  _148
REMARK   64  A    between atoms: _147  and  _150
REMARK   65  A    between atoms: _150  and  _151
REMARK   66  A    between atoms: _151  and  _152
REMARK   67  A    between atoms: _152  and  _153
REMARK   68  A    between atoms: _153  and  _154
REMARK   69  A    between atoms: _158  and  _160
REMARK   70  A    between atoms: _160  and  _161
REMARK   71  A    between atoms: _160  and  _163
REMARK   72  A    between atoms: _163  and  _164
REMARK   73  A    between atoms: _164  and  _165
REMARK   74  A    between atoms: _165  and  _166
REMARK   75  A    between atoms: _175  and  _177
REMARK   76  A    between atoms: _177  and  _178
REMARK   77  A    between atoms: _181  and  _183
REMARK   78  A    between atoms: _183  and  _184
REMARK   79  A    between atoms: _183  and  _186
REMARK   80  A    between atoms: _186  and  _187
REMARK   81  A    between atoms: _192  and  _193
REMARK   82  A    between atoms: _195  and  _197
REMARK   83  A    between atoms: _197  and  _198
REMARK   84  A    between atoms: _197  and  _200
REMARK   85  A    between atoms: _200  and  _201
REMARK   86  A    between atoms: _201  and  _202
REMARK   87  A    between atoms: _202  and  _203
REMARK   88  A    between atoms: _212  and  _214
REMARK   89  A    between atoms: _214  and  _215
REMARK   90  A    between atoms: _214  and  _217
REMARK   91  A    between atoms: _217  and  _218
REMARK   92  A    between atoms: _218  and  _219
REMARK   93  A    between atoms: _222  and  _224
REMARK   94  A    between atoms: _224  and  _225
REMARK   95  A    between atoms: _224  and  _227
REMARK   96  A    between atoms: _227  and  _228
REMARK   97  A    between atoms: _231  and  _233
REMARK   98  A    between atoms: _233  and  _234
REMARK   99  A    between atoms: _233  and  _236
REMARK  100  A    between atoms: _239  and  _241
REMARK  101  A    between atoms: _241  and  _242
REMARK  102  A    between atoms: _241  and  _244
REMARK  103  A    between atoms: _244  and  _245
REMARK  104  A    between atoms: _248  and  _250
REMARK  105  A    between atoms: _250  and  _251
REMARK  106  A    between atoms: _250  and  _253
REMARK  107  A    between atoms: _253  and  _254
REMARK  108  A    between atoms: _257  and  _259
REMARK  109  A    between atoms: _259  and  _260
REMARK  110  A    between atoms: _259  and  _262
REMARK  111  A    between atoms: _262  and  _263
REMARK  112  A    between atoms: _263  and  _264
REMARK  113  A    between atoms: _264  and  _265
REMARK  114  A    between atoms: _265  and  _266
REMARK  115  A    between atoms: _270  and  _272
REMARK  116  A    between atoms: _272  and  _273
REMARK  117  A    between atoms: _272  and  _275
REMARK  118  A    between atoms: _277  and  _279
REMARK  119  A    between atoms: _279  and  _280
REMARK  120  A    between atoms: _279  and  _282
REMARK  121  A    between atoms: _285  and  _287
REMARK  122  A    between atoms: _287  and  _288
REMARK  123  A    between atoms: _287  and  _290
REMARK  124  A    between atoms: _290  and  _291
REMARK  125  A    between atoms: _296  and  _298
REMARK  126  A    between atoms: _298  and  _299
REMARK  127  A    between atoms: _298  and  _301
REMARK  128  A    between atoms: _301  and  _302
REMARK  129  A    between atoms: _305  and  _307
REMARK  130  A    between atoms: _307  and  _308
REMARK  131  A    between atoms: _307  and  _310
REMARK  132  A    between atoms: _310  and  _311
REMARK  133  A    between atoms: _314  and  _316
REMARK  134  A    between atoms: _316  and  _317
REMARK  135  A    between atoms: _316  and  _319
REMARK  136  A    between atoms: _319  and  _320
REMARK  137  A    between atoms: _322  and  _324
REMARK  138  A    between atoms: _324  and  _325
REMARK  139  A    between atoms: _324  and  _327
REMARK  140  A    between atoms: _327  and  _328
REMARK  141  A    between atoms: _331  and  _333
REMARK  142  A    between atoms: _333  and  _334
REMARK  143  A    between atoms: _333  and  _336
REMARK  144  A    between atoms: _336  and  _337
REMARK  145  A    between atoms: _340  and  _342
REMARK  146  A    between atoms: _342  and  _343
REMARK  147  A    between atoms: _342  and  _345
REMARK  148  A    between atoms: _345  and  _346
REMARK  149  A    between atoms: _351  and  _353
REMARK  150  A    between atoms: _353  and  _354
REMARK  151  A    between atoms: _353  and  _356
REMARK  152  A    between atoms: _356  and  _357
REMARK  153  A    between atoms: _362  and  _363
REMARK  154  A    between atoms: _365  and  _367
REMARK  155  A    between atoms: _367  and  _368
REMARK  156  A    between atoms: _367  and  _370
REMARK  157  A    between atoms: _370  and  _371
REMARK  158  A    between atoms: _374  and  _376
REMARK  159  A    between atoms: _376  and  _377
REMARK  160  A    between atoms: _376  and  _379
REMARK  161  A    between atoms: _382  and  _384
REMARK  162  A    between atoms: _384  and  _385
REMARK  163  A    between atoms: _384  and  _387
REMARK  164  A    between atoms: _387  and  _388
REMARK  165  A    between atoms: _388  and  _389
REMARK  166  A    between atoms: _391  and  _393
REMARK  167  A    between atoms: _393  and  _394
REMARK  168  A    between atoms: _393  and  _396
REMARK  169  A    between atoms: _396  and  _397
REMARK  170  A    between atoms: _397  and  _398
REMARK  171  A    between atoms: _401  and  _403
REMARK  172  A    between atoms: _403  and  _404
REMARK  173  A    between atoms: _403  and  _406
REMARK  174  A    between atoms: _406  and  _407
REMARK  175  A    between atoms: _410  and  _412
REMARK  176  A    between atoms: _412  and  _413
REMARK  177  A    between atoms: _412  and  _415
REMARK  178  A    between atoms: _415  and  _416
REMARK  179  A    between atoms: _416  and  _417
REMARK  180  A    between atoms: _419  and  _421
REMARK  181  A    between atoms: _421  and  _422
REMARK  182  A    between atoms: _421  and  _424
REMARK  183  A    between atoms: _424  and  _425
REMARK  184  A    between atoms: _428  and  _430
REMARK  185  A    between atoms: _430  and  _431
REMARK  186  A    between atoms: _434  and  _436
REMARK  187  A    between atoms: _436  and  _437
REMARK  188  A    between atoms: _436  and  _439
REMARK  189  A    between atoms: _439  and  _440
REMARK  190  A    between atoms: _445  and  _447
REMARK  191  A    between atoms: _447  and  _448
REMARK  192  A    between atoms: _447  and  _450
REMARK  193  A    between atoms: _450  and  _451
REMARK  194  A    between atoms: _451  and  _452
REMARK  195  A    between atoms: _457  and  _459
REMARK  196  A    between atoms: _459  and  _460
REMARK  197  A    between atoms: _462  and  _464
REMARK  198  A    between atoms: _464  and  _465
REMARK  199  A    between atoms: _464  and  _467
REMARK  200  A    between atoms: _467  and  _468
REMARK  201  A    between atoms: _471  and  _473
REMARK  202  A    between atoms: _473  and  _474
REMARK  203  A    between atoms: _477  and  _479
REMARK  204  A    between atoms: _479  and  _480
REMARK  205  A    between atoms: _479  and  _482
REMARK  206  A    between atoms: _482  and  _483
REMARK  207  A    between atoms: _486  and  _488
REMARK  208  A    between atoms: _488  and  _489
REMARK  209  A    between atoms: _488  and  _491
REMARK  210  A    between atoms: _491  and  _492
REMARK  211  A    between atoms: _495  and  _497
REMARK  212  A    between atoms: _497  and  _498
REMARK  213  A    between atoms: _497  and  _500
REMARK  214  A    between atoms: _500  and  _501
REMARK  215  A    between atoms: _506  and  _508
REMARK  216  A    between atoms: _508  and  _509
REMARK  217  A    between atoms: _508  and  _511
REMARK  218  A    between atoms: _511  and  _512
REMARK  219  A    between atoms: _512  and  _513
REMARK  220  A    between atoms: _513  and  _514
REMARK  221  A    between atoms: _523  and  _525
REMARK  222  A    between atoms: _525  and  _526
REMARK  223  A    between atoms: _525  and  _528
REMARK  224  A    between atoms: _528  and  _529
REMARK  225  A    between atoms: _532  and  _534
REMARK  226  A    between atoms: _534  and  _535
REMARK  227  A    between atoms: _534  and  _537
REMARK  228  A    between atoms: _537  and  _538
REMARK  229  A    between atoms: _541  and  _543
REMARK  230  A    between atoms: _543  and  _544
REMARK  231  A    between atoms: _543  and  _546
REMARK  232  A    between atoms: _546  and  _547
REMARK  233  A    between atoms: _549  and  _551
REMARK  234  A    between atoms: _551  and  _552
REMARK  235  A    between atoms: _551  and  _554
REMARK  236  A    between atoms: _554  and  _555
REMARK  237  A    between atoms: _560  and  _562
REMARK  238  A    between atoms: _562  and  _563
REMARK  239  A    between atoms: _562  and  _565
REMARK  240  A    between atoms: _565  and  _566
REMARK  241  A    between atoms: _569  and  _571
REMARK  242  A    between atoms: _571  and  _572
REMARK  243  A    between atoms: _571  and  _574
REMARK  244  A    between atoms: _577  and  _579
REMARK  245  A    between atoms: _579  and  _580
REMARK  246  A    between atoms: _579  and  _582
REMARK  247  A    between atoms: _585  and  _587
REMARK  248  A    between atoms: _587  and  _588
REMARK  249  A    between atoms: _587  and  _590
REMARK  250  A    between atoms: _590  and  _591
REMARK  251  A    between atoms: _591  and  _592
REMARK  252  A    between atoms: _592  and  _593
REMARK  253  A    between atoms: _593  and  _594
REMARK  254  A    between atoms: _598  and  _600
REMARK  255  A    between atoms: _600  and  _601
REMARK  256  A    between atoms: _600  and  _603
REMARK  257  A    between atoms: _603  and  _604
REMARK  258  A    between atoms: _604  and  _605
REMARK  259  A    between atoms: _605  and  _606
REMARK  260  A    between atoms: _606  and  _607
REMARK  261  A    between atoms: _611  and  _613
REMARK  262  A    between atoms: _613  and  _614
REMARK  263  A    between atoms: _613  and  _616
REMARK  264  A    between atoms: _616  and  _617
REMARK  265  A    between atoms: _620  and  _622
REMARK  266  A    between atoms: _622  and  _623
REMARK  267  A    between atoms: _622  and  _625
REMARK  268  A    between atoms: _625  and  _626
REMARK  269  A    between atoms: _629  and  _631
REMARK  270  A    between atoms: _631  and  _632
REMARK  271  A    between atoms: _631  and  _634
REMARK  272  A    between atoms: _634  and  _635
REMARK  273  A    between atoms: _638  and  _640
REMARK  274  A    between atoms: _640  and  _641
REMARK  275  A    between atoms: _640  and  _643
REMARK  276  A    between atoms: _643  and  _644
REMARK  277  A    between atoms: _650  and  _652
REMARK  278  A    between atoms: _652  and  _653
REMARK  279  A    between atoms: _655  and  _657
REMARK  280  A    between atoms: _657  and  _658
REMARK  281  A    between atoms: _657  and  _660
REMARK  282  A    between atoms: _660  and  _661
REMARK  283  A    between atoms: _664  and  _666
REMARK  284  A    between atoms: _666  and  _667
REMARK  285  A    between atoms: _670  and  _672
REMARK  286  A    between atoms: _672  and  _673
REMARK  287  A    between atoms: _672  and  _675
REMARK  288  A    between atoms: _675  and  _676
REMARK  289  A    between atoms: _676  and  _677
REMARK  290  A    between atoms: _679  and  _681
REMARK  291  A    between atoms: _681  and  _682
REMARK  292  A    between atoms: _681  and  _684
REMARK  293  A    between atoms: _684  and  _685
REMARK  294  A    between atoms: _685  and  _686
REMARK  295  A    between atoms: _688  and  _690
REMARK  296  A    between atoms: _690  and  _691
REMARK  297  A    between atoms: _690  and  _693
REMARK  298  A    between atoms: _693  and  _694
REMARK  299  A    between atoms: _697  and  _699
REMARK  300  A    between atoms: _699  and  _700
REMARK  301  A    between atoms: _699  and  _702
REMARK  302  A    between atoms: _702  and  _703
REMARK  303  A    between atoms: _706  and  _708
REMARK  304  A    between atoms: _708  and  _709
REMARK  305  A    between atoms: _708  and  _711
REMARK  306  A    between atoms: _711  and  _712
REMARK  307  A    between atoms: _712  and  _713
REMARK                            x       y       z     vdW  Elec       q    Type
REMARK                         _______ _______ _______ _____ _____    ______ ____
ROOT
ATOM      1  O   HOH     1      60.510  42.799  12.303  0.00  0.00    +0.000 OA
ENDROOT
TORSDOF 0
REMARK  Name = ../refined-set-2016/3npc/3npc_pocket.pdb
REMARK  307 active torsions:
REMARK  status: ('A' for Active; 'I' for Inactive)
REMARK    1  A    between atoms: _1  and  _3
REMARK    2  A    between atoms: _3  and  _4
REMARK    3  A    between atoms: _3  and  _6
REMARK    4  A    between atoms: _6  and  _7
REMARK    5  A    between atoms: _10  and  _12
REMARK    6  A    between atoms: _12  and  _13
REMARK    7  A    between atoms: _15  and  _17
REMARK    8  A    between atoms: _17  and  _18
REMARK    9  A    between atoms: _17  and  _20
REMARK   10  A    between atoms: _20  and  _21
REMARK   11  A    between atoms: _21  and  _22
REMARK   12  A    between atoms: _27  and  _29
REMARK   13  A    between atoms: _29  and  _30
REMARK   14  A    between atoms: _29  and  _32
REMARK   15  A    between atoms: _32  and  _33
REMARK   16  A    between atoms: _36  and  _38
REMARK   17  A    between atoms: _38  and  _39
REMARK   18  A    between atoms: _38  and  _41
REMARK   19  A    between atoms: _44  and  _46
REMARK   20  A    between atoms: _46  and  _47
REMARK   21  A    between atoms: _46  and  _49
REMARK   22  A    between atoms: _51  and  _53
REMARK   23  A    between atoms: _53  and  _54
REMARK   24  A    between atoms: _57  and  _59
REMARK   25  A    between atoms: _59  and  _60
REMARK   26  A    between atoms: _59  and  _62
REMARK   27  A    between atoms: _62  and  _63
REMARK   28  A    between atoms: _68  and  _70
REMARK   29  A    between atoms: _70  and  _71
REMARK   30  A    between atoms: _70  and  _73
REMARK   31  A    between atoms: _76  and  _78
REMARK   32  A    between atoms: _78  and  _79
REMARK   33  A    between atoms: _82  and  _84
REMARK   34  A    between atoms: _84  and  _85
REMARK   35  A    between atoms: _84  and  _87
REMARK   36  A    between atoms: _90  and  _92
REMARK   37  A    between atoms: _92  and  _93
REMARK   38  A    between atoms: _92  and  _95
REMARK   39  A    between atoms: _95  and  _96
REMARK   40  A    between atoms: _96  and  _97
REMARK   41  A    between atoms: _97  and  _98
REMARK   42  A    between atoms: _98  and  _99
REMARK   43  A    between atoms: _103  and  _105
REMARK   44  A    between atoms: _105  and  _106
REMARK   45  A    between atoms: _105  and  _108
REMARK   46  A    between atoms: _108  and  _109
REMARK   47  A    between atoms: _109  and  _110
REMARK   48  A    between atoms: _110  and  _111
REMARK   49  A    between atoms: _111  and  _112
REMARK   50  A    between atoms: _116  and  _118
REMARK   51  A    between atoms: _118  and  _119
REMARK   52  A    between atoms: _118  and  _121
REMARK   53  A    between atoms: _121  and  _122
REMARK   54  A    between atoms: _125  and  _127
REMARK   55  A    between atoms: _127  and  _128
REMARK   56  A    between atoms: _127  and  _130
REMARK   57  A    between atoms: _130  and  _131
REMARK   58  A    between atoms: _134  and  _136
REMARK   59  A    between atoms: _136  and  _137
REMARK   60  A    between atoms: _136  and  _139
REMARK   61  A    between atoms: _139  and  _140
REMARK   62  A    between atoms: _145  and  _147
REMARK   63  A    between atoms: _147  and  _148
REMARK   64  A    between atoms: _147  and  _150
REMARK   65  A    between atoms: _150  and  _151
REMARK   66  A    between atoms: _151  and  _152
REMARK   67  A    between atoms: _152  and  _153
REMARK   68  A    between atoms: _153  and  _154
REMARK   69  A    between atoms: _158  and  _160
REMARK   70  A    between atoms: _160  and  _161
REMARK   71  A    between atoms: _160  and  _163
REMARK   72  A    between atoms: _163  and  _164
REMARK   73  A    between atoms: _164  and  _165
REMARK   74  A    between atoms: _165  and  _166
REMARK   75  A    between atoms: _175  and  _177
REMARK   76  A    between atoms: _177  and  _178
REMARK   77  A    between atoms: _181  and  _183
REMARK   78  A    between atoms: _183  and  _184
REMARK   79  A    between atoms: _183  and  _186
REMARK   80  A    between atoms: _186  and  _187
REMARK   81  A    between atoms: _192  and  _193
REMARK   82  A    between atoms: _195  and  _197
REMARK   83  A    between atoms: _197  and  _198
REMARK   84  A    between atoms: _197  and  _200
REMARK   85  A    between atoms: _200  and  _201
REMARK   86  A    between atoms: _201  and  _202
REMARK   87  A    between atoms: _202  and  _203
REMARK   88  A    between atoms: _212  and  _214
REMARK   89  A    between atoms: _214  and  _215
REMARK   90  A    between atoms: _214  and  _217
REMARK   91  A    between atoms: _217  and  _218
REMARK   92  A    between atoms: _218  and  _219
REMARK   93  A    between atoms: _222  and  _224
REMARK   94  A    between atoms: _224  and  _225
REMARK   95  A    between atoms: _224  and  _227
REMARK   96  A    between atoms: _227  and  _228
REMARK   97  A    between atoms: _231  and  _233
REMARK   98  A    between atoms: _233  and  _234
REMARK   99  A    between atoms: _233  and  _236
REMARK  100  A    between atoms: _239  and  _241
REMARK  101  A    between atoms: _241  and  _242
REMARK  102  A    between atoms: _241  and  _244
REMARK  103  A    between atoms: _244  and  _245
REMARK  104  A    between atoms: _248  and  _250
REMARK  105  A    between atoms: _250  and  _251
REMARK  106  A    between atoms: _250  and  _253
REMARK  107  A    between atoms: _253  and  _254
REMARK  108  A    between atoms: _257  and  _259
REMARK  109  A    between atoms: _259  and  _260
REMARK  110  A    between atoms: _259  and  _262
REMARK  111  A    between atoms: _262  and  _263
REMARK  112  A    between atoms: _263  and  _264
REMARK  113  A    between atoms: _264  and  _265
REMARK  114  A    between atoms: _265  and  _266
REMARK  115  A    between atoms: _270  and  _272
REMARK  116  A    between atoms: _272  and  _273
REMARK  117  A    between atoms: _272  and  _275
REMARK  118  A    between atoms: _277  and  _279
REMARK  119  A    between atoms: _279  and  _280
REMARK  120  A    between atoms: _279  and  _282
REMARK  121  A    between atoms: _285  and  _287
REMARK  122  A    between atoms: _287  and  _288
REMARK  123  A    between atoms: _287  and  _290
REMARK  124  A    between atoms: _290  and  _291
REMARK  125  A    between atoms: _296  and  _298
REMARK  126  A    between atoms: _298  and  _299
REMARK  127  A    between atoms: _298  and  _301
REMARK  128  A    between atoms: _301  and  _302
REMARK  129  A    between atoms: _305  and  _307
REMARK  130  A    between atoms: _307  and  _308
REMARK  131  A    between atoms: _307  and  _310
REMARK  132  A    between atoms: _310  and  _311
REMARK  133  A    between atoms: _314  and  _316
REMARK  134  A    between atoms: _316  and  _317
REMARK  135  A    between atoms: _316  and  _319
REMARK  136  A    between atoms: _319  and  _320
REMARK  137  A    between atoms: _322  and  _324
REMARK  138  A    between atoms: _324  and  _325
REMARK  139  A    between atoms: _324  and  _327
REMARK  140  A    between atoms: _327  and  _328
REMARK  141  A    between atoms: _331  and  _333
REMARK  142  A    between atoms: _333  and  _334
REMARK  143  A    between atoms: _333  and  _336
REMARK  144  A    between atoms: _336  and  _337
REMARK  145  A    between atoms: _340  and  _342
REMARK  146  A    between atoms: _342  and  _343
REMARK  147  A    between atoms: _342  and  _345
REMARK  148  A    between atoms: _345  and  _346
REMARK  149  A    between atoms: _351  and  _353
REMARK  150  A    between atoms: _353  and  _354
REMARK  151  A    between atoms: _353  and  _356
REMARK  152  A    between atoms: _356  and  _357
REMARK  153  A    between atoms: _362  and  _363
REMARK  154  A    between atoms: _365  and  _367
REMARK  155  A    between atoms: _367  and  _368
REMARK  156  A    between atoms: _367  and  _370
REMARK  157  A    between atoms: _370  and  _371
REMARK  158  A    between atoms: _374  and  _376
REMARK  159  A    between atoms: _376  and  _377
REMARK  160  A    between atoms: _376  and  _379
REMARK  161  A    between atoms: _382  and  _384
REMARK  162  A    between atoms: _384  and  _385
REMARK  163  A    between atoms: _384  and  _387
REMARK  164  A    between atoms: _387  and  _388
REMARK  165  A    between atoms: _388  and  _389
REMARK  166  A    between atoms: _391  and  _393
REMARK  167  A    between atoms: _393  and  _394
REMARK  168  A    between atoms: _393  and  _396
REMARK  169  A    between atoms: _396  and  _397
REMARK  170  A    between atoms: _397  and  _398
REMARK  171  A    between atoms: _401  and  _403
REMARK  172  A    between atoms: _403  and  _404
REMARK  173  A    between atoms: _403  and  _406
REMARK  174  A    between atoms: _406  and  _407
REMARK  175  A    between atoms: _410  and  _412
REMARK  176  A    between atoms: _412  and  _413
REMARK  177  A    between atoms: _412  and  _415
REMARK  178  A    between atoms: _415  and  _416
REMARK  179  A    between atoms: _416  and  _417
REMARK  180  A    between atoms: _419  and  _421
REMARK  181  A    between atoms: _421  and  _422
REMARK  182  A    between atoms: _421  and  _424
REMARK  183  A    between atoms: _424  and  _425
REMARK  184  A    between atoms: _428  and  _430
REMARK  185  A    between atoms: _430  and  _431
REMARK  186  A    between atoms: _434  and  _436
REMARK  187  A    between atoms: _436  and  _437
REMARK  188  A    between atoms: _436  and  _439
REMARK  189  A    between atoms: _439  and  _440
REMARK  190  A    between atoms: _445  and  _447
REMARK  191  A    between atoms: _447  and  _448
REMARK  192  A    between atoms: _447  and  _450
REMARK  193  A    between atoms: _450  and  _451
REMARK  194  A    between atoms: _451  and  _452
REMARK  195  A    between atoms: _457  and  _459
REMARK  196  A    between atoms: _459  and  _460
REMARK  197  A    between atoms: _462  and  _464
REMARK  198  A    between atoms: _464  and  _465
REMARK  199  A    between atoms: _464  and  _467
REMARK  200  A    between atoms: _467  and  _468
REMARK  201  A    between atoms: _471  and  _473
REMARK  202  A    between atoms: _473  and  _474
REMARK  203  A    between atoms: _477  and  _479
REMARK  204  A    between atoms: _479  and  _480
REMARK  205  A    between atoms: _479  and  _482
REMARK  206  A    between atoms: _482  and  _483
REMARK  207  A    between atoms: _486  and  _488
REMARK  208  A    between atoms: _488  and  _489
REMARK  209  A    between atoms: _488  and  _491
REMARK  210  A    between atoms: _491  and  _492
REMARK  211  A    between atoms: _495  and  _497
REMARK  212  A    between atoms: _497  and  _498
REMARK  213  A    between atoms: _497  and  _500
REMARK  214  A    between atoms: _500  and  _501
REMARK  215  A    between atoms: _506  and  _508
REMARK  216  A    between atoms: _508  and  _509
REMARK  217  A    between atoms: _508  and  _511
REMARK  218  A    between atoms: _511  and  _512
REMARK  219  A    between atoms: _512  and  _513
REMARK  220  A    between atoms: _513  and  _514
REMARK  221  A    between atoms: _523  and  _525
REMARK  222  A    between atoms: _525  and  _526
REMARK  223  A    between atoms: _525  and  _528
REMARK  224  A    between atoms: _528  and  _529
REMARK  225  A    between atoms: _532  and  _534
REMARK  226  A    between atoms: _534  and  _535
REMARK  227  A    between atoms: _534  and  _537
REMARK  228  A    between atoms: _537  and  _538
REMARK  229  A    between atoms: _541  and  _543
REMARK  230  A    between atoms: _543  and  _544
REMARK  231  A    between atoms: _543  and  _546
REMARK  232  A    between atoms: _546  and  _547
REMARK  233  A    between atoms: _549  and  _551
REMARK  234  A    between atoms: _551  and  _552
REMARK  235  A    between atoms: _551  and  _554
REMARK  236  A    between atoms: _554  and  _555
REMARK  237  A    between atoms: _560  and  _562
REMARK  238  A    between atoms: _562  and  _563
REMARK  239  A    between atoms: _562  and  _565
REMARK  240  A    between atoms: _565  and  _566
REMARK  241  A    between atoms: _569  and  _571
REMARK  242  A    between atoms: _571  and  _572
REMARK  243  A    between atoms: _571  and  _574
REMARK  244  A    between atoms: _577  and  _579
REMARK  245  A    between atoms: _579  and  _580
REMARK  246  A    between atoms: _579  and  _582
REMARK  247  A    between atoms: _585  and  _587
REMARK  248  A    between atoms: _587  and  _588
REMARK  249  A    between atoms: _587  and  _590
REMARK  250  A    between atoms: _590  and  _591
REMARK  251  A    between atoms: _591  and  _592
REMARK  252  A    between atoms: _592  and  _593
REMARK  253  A    between atoms: _593  and  _594
REMARK  254  A    between atoms: _598  and  _600
REMARK  255  A    between atoms: _600  and  _601
REMARK  256  A    between atoms: _600  and  _603
REMARK  257  A    between atoms: _603  and  _604
REMARK  258  A    between atoms: _604  and  _605
REMARK  259  A    between atoms: _605  and  _606
REMARK  260  A    between atoms: _606  and  _607
REMARK  261  A    between atoms: _611  and  _613
REMARK  262  A    between atoms: _613  and  _614
REMARK  263  A    between atoms: _613  and  _616
REMARK  264  A    between atoms: _616  and  _617
REMARK  265  A    between atoms: _620  and  _622
REMARK  266  A    between atoms: _622  and  _623
REMARK  267  A    between atoms: _622  and  _625
REMARK  268  A    between atoms: _625  and  _626
REMARK  269  A    between atoms: _629  and  _631
REMARK  270  A    between atoms: _631  and  _632
REMARK  271  A    between atoms: _631  and  _634
REMARK  272  A    between atoms: _634  and  _635
REMARK  273  A    between atoms: _638  and  _640
REMARK  274  A    between atoms: _640  and  _641
REMARK  275  A    between atoms: _640  and  _643
REMARK  276  A    between atoms: _643  and  _644
REMARK  277  A    between atoms: _650  and  _652
REMARK  278  A    between atoms: _652  and  _653
REMARK  279  A    between atoms: _655  and  _657
REMARK  280  A    between atoms: _657  and  _658
REMARK  281  A    between atoms: _657  and  _660
REMARK  282  A    between atoms: _660  and  _661
REMARK  283  A    between atoms: _664  and  _666
REMARK  284  A    between atoms: _666  and  _667
REMARK  285  A    between atoms: _670  and  _672
REMARK  286  A    between atoms: _672  and  _673
REMARK  287  A    between atoms: _672  and  _675
REMARK  288  A    between atoms: _675  and  _676
REMARK  289  A    between atoms: _676  and  _677
REMARK  290  A    between atoms: _679  and  _681
REMARK  291  A    between atoms: _681  and  _682
REMARK  292  A    between atoms: _681  and  _684
REMARK  293  A    between atoms: _684  and  _685
REMARK  294  A    between atoms: _685  and  _686
REMARK  295  A    between atoms: _688  and  _690
REMARK  296  A    between atoms: _690  and  _691
REMARK  297  A    between atoms: _690  and  _693
REMARK  298  A    between atoms: _693  and  _694
REMARK  299  A    between atoms: _697  and  _699
REMARK  300  A    between atoms: _699  and  _700
REMARK  301  A    between atoms: _699  and  _702
REMARK  302  A    between atoms: _702  and  _703
REMARK  303  A    between atoms: _706  and  _708
REMARK  304  A    between atoms: _708  and  _709
REMARK  305  A    between atoms: _708  and  _711
REMARK  306  A    between atoms: _711  and  _712
REMARK  307  A    between atoms: _712  and  _713
REMARK                            x       y       z     vdW  Elec       q    Type
REMARK                         _______ _______ _______ _____ _____    ______ ____
ROOT
ATOM      1  O   HOH     1      53.549  41.841   7.132  0.00  0.00    +0.000 OA
ENDROOT
TORSDOF 0
REMARK  Name = ../refined-set-2016/3npc/3npc_pocket.pdb
REMARK  307 active torsions:
REMARK  status: ('A' for Active; 'I' for Inactive)
REMARK    1  A    between atoms: _1  and  _3
REMARK    2  A    between atoms: _3  and  _4
REMARK    3  A    between atoms: _3  and  _6
REMARK    4  A    between atoms: _6  and  _7
REMARK    5  A    between atoms: _10  and  _12
REMARK    6  A    between atoms: _12  and  _13
REMARK    7  A    between atoms: _15  and  _17
REMARK    8  A    between atoms: _17  and  _18
REMARK    9  A    between atoms: _17  and  _20
REMARK   10  A    between atoms: _20  and  _21
REMARK   11  A    between atoms: _21  and  _22
REMARK   12  A    between atoms: _27  and  _29
REMARK   13  A    between atoms: _29  and  _30
REMARK   14  A    between atoms: _29  and  _32
REMARK   15  A    between atoms: _32  and  _33
REMARK   16  A    between atoms: _36  and  _38
REMARK   17  A    between atoms: _38  and  _39
REMARK   18  A    between atoms: _38  and  _41
REMARK   19  A    between atoms: _44  and  _46
REMARK   20  A    between atoms: _46  and  _47
REMARK   21  A    between atoms: _46  and  _49
REMARK   22  A    between atoms: _51  and  _53
REMARK   23  A    between atoms: _53  and  _54
REMARK   24  A    between atoms: _57  and  _59
REMARK   25  A    between atoms: _59  and  _60
REMARK   26  A    between atoms: _59  and  _62
REMARK   27  A    between atoms: _62  and  _63
REMARK   28  A    between atoms: _68  and  _70
REMARK   29  A    between atoms: _70  and  _71
REMARK   30  A    between atoms: _70  and  _73
REMARK   31  A    between atoms: _76  and  _78
REMARK   32  A    between atoms: _78  and  _79
REMARK   33  A    between atoms: _82  and  _84
REMARK   34  A    between atoms: _84  and  _85
REMARK   35  A    between atoms: _84  and  _87
REMARK   36  A    between atoms: _90  and  _92
REMARK   37  A    between atoms: _92  and  _93
REMARK   38  A    between atoms: _92  and  _95
REMARK   39  A    between atoms: _95  and  _96
REMARK   40  A    between atoms: _96  and  _97
REMARK   41  A    between atoms: _97  and  _98
REMARK   42  A    between atoms: _98  and  _99
REMARK   43  A    between atoms: _103  and  _105
REMARK   44  A    between atoms: _105  and  _106
REMARK   45  A    between atoms: _105  and  _108
REMARK   46  A    between atoms: _108  and  _109
REMARK   47  A    between atoms: _109  and  _110
REMARK   48  A    between atoms: _110  and  _111
REMARK   49  A    between atoms: _111  and  _112
REMARK   50  A    between atoms: _116  and  _118
REMARK   51  A    between atoms: _118  and  _119
REMARK   52  A    between atoms: _118  and  _121
REMARK   53  A    between atoms: _121  and  _122
REMARK   54  A    between atoms: _125  and  _127
REMARK   55  A    between atoms: _127  and  _128
REMARK   56  A    between atoms: _127  and  _130
REMARK   57  A    between atoms: _130  and  _131
REMARK   58  A    between atoms: _134  and  _136
REMARK   59  A    between atoms: _136  and  _137
REMARK   60  A    between atoms: _136  and  _139
REMARK   61  A    between atoms: _139  and  _140
REMARK   62  A    between atoms: _145  and  _147
REMARK   63  A    between atoms: _147  and  _148
REMARK   64  A    between atoms: _147  and  _150
REMARK   65  A    between atoms: _150  and  _151
REMARK   66  A    between atoms: _151  and  _152
REMARK   67  A    between atoms: _152  and  _153
REMARK   68  A    between atoms: _153  and  _154
REMARK   69  A    between atoms: _158  and  _160
REMARK   70  A    between atoms: _160  and  _161
REMARK   71  A    between atoms: _160  and  _163
REMARK   72  A    between atoms: _163  and  _164
REMARK   73  A    between atoms: _164  and  _165
REMARK   74  A    between atoms: _165  and  _166
REMARK   75  A    between atoms: _175  and  _177
REMARK   76  A    between atoms: _177  and  _178
REMARK   77  A    between atoms: _181  and  _183
REMARK   78  A    between atoms: _183  and  _184
REMARK   79  A    between atoms: _183  and  _186
REMARK   80  A    between atoms: _186  and  _187
REMARK   81  A    between atoms: _192  and  _193
REMARK   82  A    between atoms: _195  and  _197
REMARK   83  A    between atoms: _197  and  _198
REMARK   84  A    between atoms: _197  and  _200
REMARK   85  A    between atoms: _200  and  _201
REMARK   86  A    between atoms: _201  and  _202
REMARK   87  A    between atoms: _202  and  _203
REMARK   88  A    between atoms: _212  and  _214
REMARK   89  A    between atoms: _214  and  _215
REMARK   90  A    between atoms: _214  and  _217
REMARK   91  A    between atoms: _217  and  _218
REMARK   92  A    between atoms: _218  and  _219
REMARK   93  A    between atoms: _222  and  _224
REMARK   94  A    between atoms: _224  and  _225
REMARK   95  A    between atoms: _224  and  _227
REMARK   96  A    between atoms: _227  and  _228
REMARK   97  A    between atoms: _231  and  _233
REMARK   98  A    between atoms: _233  and  _234
REMARK   99  A    between atoms: _233  and  _236
REMARK  100  A    between atoms: _239  and  _241
REMARK  101  A    between atoms: _241  and  _242
REMARK  102  A    between atoms: _241  and  _244
REMARK  103  A    between atoms: _244  and  _245
REMARK  104  A    between atoms: _248  and  _250
REMARK  105  A    between atoms: _250  and  _251
REMARK  106  A    between atoms: _250  and  _253
REMARK  107  A    between atoms: _253  and  _254
REMARK  108  A    between atoms: _257  and  _259
REMARK  109  A    between atoms: _259  and  _260
REMARK  110  A    between atoms: _259  and  _262
REMARK  111  A    between atoms: _262  and  _263
REMARK  112  A    between atoms: _263  and  _264
REMARK  113  A    between atoms: _264  and  _265
REMARK  114  A    between atoms: _265  and  _266
REMARK  115  A    between atoms: _270  and  _272
REMARK  116  A    between atoms: _272  and  _273
REMARK  117  A    between atoms: _272  and  _275
REMARK  118  A    between atoms: _277  and  _279
REMARK  119  A    between atoms: _279  and  _280
REMARK  120  A    between atoms: _279  and  _282
REMARK  121  A    between atoms: _285  and  _287
REMARK  122  A    between atoms: _287  and  _288
REMARK  123  A    between atoms: _287  and  _290
REMARK  124  A    between atoms: _290  and  _291
REMARK  125  A    between atoms: _296  and  _298
REMARK  126  A    between atoms: _298  and  _299
REMARK  127  A    between atoms: _298  and  _301
REMARK  128  A    between atoms: _301  and  _302
REMARK  129  A    between atoms: _305  and  _307
REMARK  130  A    between atoms: _307  and  _308
REMARK  131  A    between atoms: _307  and  _310
REMARK  132  A    between atoms: _310  and  _311
REMARK  133  A    between atoms: _314  and  _316
REMARK  134  A    between atoms: _316  and  _317
REMARK  135  A    between atoms: _316  and  _319
REMARK  136  A    between atoms: _319  and  _320
REMARK  137  A    between atoms: _322  and  _324
REMARK  138  A    between atoms: _324  and  _325
REMARK  139  A    between atoms: _324  and  _327
REMARK  140  A    between atoms: _327  and  _328
REMARK  141  A    between atoms: _331  and  _333
REMARK  142  A    between atoms: _333  and  _334
REMARK  143  A    between atoms: _333  and  _336
REMARK  144  A    between atoms: _336  and  _337
REMARK  145  A    between atoms: _340  and  _342
REMARK  146  A    between atoms: _342  and  _343
REMARK  147  A    between atoms: _342  and  _345
REMARK  148  A    between atoms: _345  and  _346
REMARK  149  A    between atoms: _351  and  _353
REMARK  150  A    between atoms: _353  and  _354
REMARK  151  A    between atoms: _353  and  _356
REMARK  152  A    between atoms: _356  and  _357
REMARK  153  A    between atoms: _362  and  _363
REMARK  154  A    between atoms: _365  and  _367
REMARK  155  A    between atoms: _367  and  _368
REMARK  156  A    between atoms: _367  and  _370
REMARK  157  A    between atoms: _370  and  _371
REMARK  158  A    between atoms: _374  and  _376
REMARK  159  A    between atoms: _376  and  _377
REMARK  160  A    between atoms: _376  and  _379
REMARK  161  A    between atoms: _382  and  _384
REMARK  162  A    between atoms: _384  and  _385
REMARK  163  A    between atoms: _384  and  _387
REMARK  164  A    between atoms: _387  and  _388
REMARK  165  A    between atoms: _388  and  _389
REMARK  166  A    between atoms: _391  and  _393
REMARK  167  A    between atoms: _393  and  _394
REMARK  168  A    between atoms: _393  and  _396
REMARK  169  A    between atoms: _396  and  _397
REMARK  170  A    between atoms: _397  and  _398
REMARK  171  A    between atoms: _401  and  _403
REMARK  172  A    between atoms: _403  and  _404
REMARK  173  A    between atoms: _403  and  _406
REMARK  174  A    between atoms: _406  and  _407
REMARK  175  A    between atoms: _410  and  _412
REMARK  176  A    between atoms: _412  and  _413
REMARK  177  A    between atoms: _412  and  _415
REMARK  178  A    between atoms: _415  and  _416
REMARK  179  A    between atoms: _416  and  _417
REMARK  180  A    between atoms: _419  and  _421
REMARK  181  A    between atoms: _421  and  _422
REMARK  182  A    between atoms: _421  and  _424
REMARK  183  A    between atoms: _424  and  _425
REMARK  184  A    between atoms: _428  and  _430
REMARK  185  A    between atoms: _430  and  _431
REMARK  186  A    between atoms: _434  and  _436
REMARK  187  A    between atoms: _436  and  _437
REMARK  188  A    between atoms: _436  and  _439
REMARK  189  A    between atoms: _439  and  _440
REMARK  190  A    between atoms: _445  and  _447
REMARK  191  A    between atoms: _447  and  _448
REMARK  192  A    between atoms: _447  and  _450
REMARK  193  A    between atoms: _450  and  _451
REMARK  194  A    between atoms: _451  and  _452
REMARK  195  A    between atoms: _457  and  _459
REMARK  196  A    between atoms: _459  and  _460
REMARK  197  A    between atoms: _462  and  _464
REMARK  198  A    between atoms: _464  and  _465
REMARK  199  A    between atoms: _464  and  _467
REMARK  200  A    between atoms: _467  and  _468
REMARK  201  A    between atoms: _471  and  _473
REMARK  202  A    between atoms: _473  and  _474
REMARK  203  A    between atoms: _477  and  _479
REMARK  204  A    between atoms: _479  and  _480
REMARK  205  A    between atoms: _479  and  _482
REMARK  206  A    between atoms: _482  and  _483
REMARK  207  A    between atoms: _486  and  _488
REMARK  208  A    between atoms: _488  and  _489
REMARK  209  A    between atoms: _488  and  _491
REMARK  210  A    between atoms: _491  and  _492
REMARK  211  A    between atoms: _495  and  _497
REMARK  212  A    between atoms: _497  and  _498
REMARK  213  A    between atoms: _497  and  _500
REMARK  214  A    between atoms: _500  and  _501
REMARK  215  A    between atoms: _506  and  _508
REMARK  216  A    between atoms: _508  and  _509
REMARK  217  A    between atoms: _508  and  _511
REMARK  218  A    between atoms: _511  and  _512
REMARK  219  A    between atoms: _512  and  _513
REMARK  220  A    between atoms: _513  and  _514
REMARK  221  A    between atoms: _523  and  _525
REMARK  222  A    between atoms: _525  and  _526
REMARK  223  A    between atoms: _525  and  _528
REMARK  224  A    between atoms: _528  and  _529
REMARK  225  A    between atoms: _532  and  _534
REMARK  226  A    between atoms: _534  and  _535
REMARK  227  A    between atoms: _534  and  _537
REMARK  228  A    between atoms: _537  and  _538
REMARK  229  A    between atoms: _541  and  _543
REMARK  230  A    between atoms: _543  and  _544
REMARK  231  A    between atoms: _543  and  _546
REMARK  232  A    between atoms: _546  and  _547
REMARK  233  A    between atoms: _549  and  _551
REMARK  234  A    between atoms: _551  and  _552
REMARK  235  A    between atoms: _551  and  _554
REMARK  236  A    between atoms: _554  and  _555
REMARK  237  A    between atoms: _560  and  _562
REMARK  238  A    between atoms: _562  and  _563
REMARK  239  A    between atoms: _562  and  _565
REMARK  240  A    between atoms: _565  and  _566
REMARK  241  A    between atoms: _569  and  _571
REMARK  242  A    between atoms: _571  and  _572
REMARK  243  A    between atoms: _571  and  _574
REMARK  244  A    between atoms: _577  and  _579
REMARK  245  A    between atoms: _579  and  _580
REMARK  246  A    between atoms: _579  and  _582
REMARK  247  A    between atoms: _585  and  _587
REMARK  248  A    between atoms: _587  and  _588
REMARK  249  A    between atoms: _587  and  _590
REMARK  250  A    between atoms: _590  and  _591
REMARK  251  A    between atoms: _591  and  _592
REMARK  252  A    between atoms: _592  and  _593
REMARK  253  A    between atoms: _593  and  _594
REMARK  254  A    between atoms: _598  and  _600
REMARK  255  A    between atoms: _600  and  _601
REMARK  256  A    between atoms: _600  and  _603
REMARK  257  A    between atoms: _603  and  _604
REMARK  258  A    between atoms: _604  and  _605
REMARK  259  A    between atoms: _605  and  _606
REMARK  260  A    between atoms: _606  and  _607
REMARK  261  A    between atoms: _611  and  _613
REMARK  262  A    between atoms: _613  and  _614
REMARK  263  A    between atoms: _613  and  _616
REMARK  264  A    between atoms: _616  and  _617
REMARK  265  A    between atoms: _620  and  _622
REMARK  266  A    between atoms: _622  and  _623
REMARK  267  A    between atoms: _622  and  _625
REMARK  268  A    between atoms: _625  and  _626
REMARK  269  A    between atoms: _629  and  _631
REMARK  270  A    between atoms: _631  and  _632
REMARK  271  A    between atoms: _631  and  _634
REMARK  272  A    between atoms: _634  and  _635
REMARK  273  A    between atoms: _638  and  _640
REMARK  274  A    between atoms: _640  and  _641
REMARK  275  A    between atoms: _640  and  _643
REMARK  276  A    between atoms: _643  and  _644
REMARK  277  A    between atoms: _650  and  _652
REMARK  278  A    between atoms: _652  and  _653
REMARK  279  A    between atoms: _655  and  _657
REMARK  280  A    between atoms: _657  and  _658
REMARK  281  A    between atoms: _657  and  _660
REMARK  282  A    between atoms: _660  and  _661
REMARK  283  A    between atoms: _664  and  _666
REMARK  284  A    between atoms: _666  and  _667
REMARK  285  A    between atoms: _670  and  _672
REMARK  286  A    between atoms: _672  and  _673
REMARK  287  A    between atoms: _672  and  _675
REMARK  288  A    between atoms: _675  and  _676
REMARK  289  A    between atoms: _676  and  _677
REMARK  290  A    between atoms: _679  and  _681
REMARK  291  A    between atoms: _681  and  _682
REMARK  292  A    between atoms: _681  and  _684
REMARK  293  A    between atoms: _684  and  _685
REMARK  294  A    between atoms: _685  and  _686
REMARK  295  A    between atoms: _688  and  _690
REMARK  296  A    between atoms: _690  and  _691
REMARK  297  A    between atoms: _690  and  _693
REMARK  298  A    between atoms: _693  and  _694
REMARK  299  A    between atoms: _697  and  _699
REMARK  300  A    between atoms: _699  and  _700
REMARK  301  A    between atoms: _699  and  _702
REMARK  302  A    between atoms: _702  and  _703
REMARK  303  A    between atoms: _706  and  _708
REMARK  304  A    between atoms: _708  and  _709
REMARK  305  A    between atoms: _708  and  _711
REMARK  306  A    between atoms: _711  and  _712
REMARK  307  A    between atoms: _712  and  _713
REMARK                            x       y       z     vdW  Elec       q    Type
REMARK                         _______ _______ _______ _____ _____    ______ ____
ROOT
ATOM      1  O   HOH     1      48.590  52.367  15.961  0.00  0.00    +0.000 OA
ENDROOT
TORSDOF 0
REMARK  Name = ../refined-set-2016/3npc/3npc_pocket.pdb
REMARK  307 active torsions:
REMARK  status: ('A' for Active; 'I' for Inactive)
REMARK    1  A    between atoms: _1  and  _3
REMARK    2  A    between atoms: _3  and  _4
REMARK    3  A    between atoms: _3  and  _6
REMARK    4  A    between atoms: _6  and  _7
REMARK    5  A    between atoms: _10  and  _12
REMARK    6  A    between atoms: _12  and  _13
REMARK    7  A    between atoms: _15  and  _17
REMARK    8  A    between atoms: _17  and  _18
REMARK    9  A    between atoms: _17  and  _20
REMARK   10  A    between atoms: _20  and  _21
REMARK   11  A    between atoms: _21  and  _22
REMARK   12  A    between atoms: _27  and  _29
REMARK   13  A    between atoms: _29  and  _30
REMARK   14  A    between atoms: _29  and  _32
REMARK   15  A    between atoms: _32  and  _33
REMARK   16  A    between atoms: _36  and  _38
REMARK   17  A    between atoms: _38  and  _39
REMARK   18  A    between atoms: _38  and  _41
REMARK   19  A    between atoms: _44  and  _46
REMARK   20  A    between atoms: _46  and  _47
REMARK   21  A    between atoms: _46  and  _49
REMARK   22  A    between atoms: _51  and  _53
REMARK   23  A    between atoms: _53  and  _54
REMARK   24  A    between atoms: _57  and  _59
REMARK   25  A    between atoms: _59  and  _60
REMARK   26  A    between atoms: _59  and  _62
REMARK   27  A    between atoms: _62  and  _63
REMARK   28  A    between atoms: _68  and  _70
REMARK   29  A    between atoms: _70  and  _71
REMARK   30  A    between atoms: _70  and  _73
REMARK   31  A    between atoms: _76  and  _78
REMARK   32  A    between atoms: _78  and  _79
REMARK   33  A    between atoms: _82  and  _84
REMARK   34  A    between atoms: _84  and  _85
REMARK   35  A    between atoms: _84  and  _87
REMARK   36  A    between atoms: _90  and  _92
REMARK   37  A    between atoms: _92  and  _93
REMARK   38  A    between atoms: _92  and  _95
REMARK   39  A    between atoms: _95  and  _96
REMARK   40  A    between atoms: _96  and  _97
REMARK   41  A    between atoms: _97  and  _98
REMARK   42  A    between atoms: _98  and  _99
REMARK   43  A    between atoms: _103  and  _105
REMARK   44  A    between atoms: _105  and  _106
REMARK   45  A    between atoms: _105  and  _108
REMARK   46  A    between atoms: _108  and  _109
REMARK   47  A    between atoms: _109  and  _110
REMARK   48  A    between atoms: _110  and  _111
REMARK   49  A    between atoms: _111  and  _112
REMARK   50  A    between atoms: _116  and  _118
REMARK   51  A    between atoms: _118  and  _119
REMARK   52  A    between atoms: _118  and  _121
REMARK   53  A    between atoms: _121  and  _122
REMARK   54  A    between atoms: _125  and  _127
REMARK   55  A    between atoms: _127  and  _128
REMARK   56  A    between atoms: _127  and  _130
REMARK   57  A    between atoms: _130  and  _131
REMARK   58  A    between atoms: _134  and  _136
REMARK   59  A    between atoms: _136  and  _137
REMARK   60  A    between atoms: _136  and  _139
REMARK   61  A    between atoms: _139  and  _140
REMARK   62  A    between atoms: _145  and  _147
REMARK   63  A    between atoms: _147  and  _148
REMARK   64  A    between atoms: _147  and  _150
REMARK   65  A    between atoms: _150  and  _151
REMARK   66  A    between atoms: _151  and  _152
REMARK   67  A    between atoms: _152  and  _153
REMARK   68  A    between atoms: _153  and  _154
REMARK   69  A    between atoms: _158  and  _160
REMARK   70  A    between atoms: _160  and  _161
REMARK   71  A    between atoms: _160  and  _163
REMARK   72  A    between atoms: _163  and  _164
REMARK   73  A    between atoms: _164  and  _165
REMARK   74  A    between atoms: _165  and  _166
REMARK   75  A    between atoms: _175  and  _177
REMARK   76  A    between atoms: _177  and  _178
REMARK   77  A    between atoms: _181  and  _183
REMARK   78  A    between atoms: _183  and  _184
REMARK   79  A    between atoms: _183  and  _186
REMARK   80  A    between atoms: _186  and  _187
REMARK   81  A    between atoms: _192  and  _193
REMARK   82  A    between atoms: _195  and  _197
REMARK   83  A    between atoms: _197  and  _198
REMARK   84  A    between atoms: _197  and  _200
REMARK   85  A    between atoms: _200  and  _201
REMARK   86  A    between atoms: _201  and  _202
REMARK   87  A    between atoms: _202  and  _203
REMARK   88  A    between atoms: _212  and  _214
REMARK   89  A    between atoms: _214  and  _215
REMARK   90  A    between atoms: _214  and  _217
REMARK   91  A    between atoms: _217  and  _218
REMARK   92  A    between atoms: _218  and  _219
REMARK   93  A    between atoms: _222  and  _224
REMARK   94  A    between atoms: _224  and  _225
REMARK   95  A    between atoms: _224  and  _227
REMARK   96  A    between atoms: _227  and  _228
REMARK   97  A    between atoms: _231  and  _233
REMARK   98  A    between atoms: _233  and  _234
REMARK   99  A    between atoms: _233  and  _236
REMARK  100  A    between atoms: _239  and  _241
REMARK  101  A    between atoms: _241  and  _242
REMARK  102  A    between atoms: _241  and  _244
REMARK  103  A    between atoms: _244  and  _245
REMARK  104  A    between atoms: _248  and  _250
REMARK  105  A    between atoms: _250  and  _251
REMARK  106  A    between atoms: _250  and  _253
REMARK  107  A    between atoms: _253  and  _254
REMARK  108  A    between atoms: _257  and  _259
REMARK  109  A    between atoms: _259  and  _260
REMARK  110  A    between atoms: _259  and  _262
REMARK  111  A    between atoms: _262  and  _263
REMARK  112  A    between atoms: _263  and  _264
REMARK  113  A    between atoms: _264  and  _265
REMARK  114  A    between atoms: _265  and  _266
REMARK  115  A    between atoms: _270  and  _272
REMARK  116  A    between atoms: _272  and  _273
REMARK  117  A    between atoms: _272  and  _275
REMARK  118  A    between atoms: _277  and  _279
REMARK  119  A    between atoms: _279  and  _280
REMARK  120  A    between atoms: _279  and  _282
REMARK  121  A    between atoms: _285  and  _287
REMARK  122  A    between atoms: _287  and  _288
REMARK  123  A    between atoms: _287  and  _290
REMARK  124  A    between atoms: _290  and  _291
REMARK  125  A    between atoms: _296  and  _298
REMARK  126  A    between atoms: _298  and  _299
REMARK  127  A    between atoms: _298  and  _301
REMARK  128  A    between atoms: _301  and  _302
REMARK  129  A    between atoms: _305  and  _307
REMARK  130  A    between atoms: _307  and  _308
REMARK  131  A    between atoms: _307  and  _310
REMARK  132  A    between atoms: _310  and  _311
REMARK  133  A    between atoms: _314  and  _316
REMARK  134  A    between atoms: _316  and  _317
REMARK  135  A    between atoms: _316  and  _319
REMARK  136  A    between atoms: _319  and  _320
REMARK  137  A    between atoms: _322  and  _324
REMARK  138  A    between atoms: _324  and  _325
REMARK  139  A    between atoms: _324  and  _327
REMARK  140  A    between atoms: _327  and  _328
REMARK  141  A    between atoms: _331  and  _333
REMARK  142  A    between atoms: _333  and  _334
REMARK  143  A    between atoms: _333  and  _336
REMARK  144  A    between atoms: _336  and  _337
REMARK  145  A    between atoms: _340  and  _342
REMARK  146  A    between atoms: _342  and  _343
REMARK  147  A    between atoms: _342  and  _345
REMARK  148  A    between atoms: _345  and  _346
REMARK  149  A    between atoms: _351  and  _353
REMARK  150  A    between atoms: _353  and  _354
REMARK  151  A    between atoms: _353  and  _356
REMARK  152  A    between atoms: _356  and  _357
REMARK  153  A    between atoms: _362  and  _363
REMARK  154  A    between atoms: _365  and  _367
REMARK  155  A    between atoms: _367  and  _368
REMARK  156  A    between atoms: _367  and  _370
REMARK  157  A    between atoms: _370  and  _371
REMARK  158  A    between atoms: _374  and  _376
REMARK  159  A    between atoms: _376  and  _377
REMARK  160  A    between atoms: _376  and  _379
REMARK  161  A    between atoms: _382  and  _384
REMARK  162  A    between atoms: _384  and  _385
REMARK  163  A    between atoms: _384  and  _387
REMARK  164  A    between atoms: _387  and  _388
REMARK  165  A    between atoms: _388  and  _389
REMARK  166  A    between atoms: _391  and  _393
REMARK  167  A    between atoms: _393  and  _394
REMARK  168  A    between atoms: _393  and  _396
REMARK  169  A    between atoms: _396  and  _397
REMARK  170  A    between atoms: _397  and  _398
REMARK  171  A    between atoms: _401  and  _403
REMARK  172  A    between atoms: _403  and  _404
REMARK  173  A    between atoms: _403  and  _406
REMARK  174  A    between atoms: _406  and  _407
REMARK  175  A    between atoms: _410  and  _412
REMARK  176  A    between atoms: _412  and  _413
REMARK  177  A    between atoms: _412  and  _415
REMARK  178  A    between atoms: _415  and  _416
REMARK  179  A    between atoms: _416  and  _417
REMARK  180  A    between atoms: _419  and  _421
REMARK  181  A    between atoms: _421  and  _422
REMARK  182  A    between atoms: _421  and  _424
REMARK  183  A    between atoms: _424  and  _425
REMARK  184  A    between atoms: _428  and  _430
REMARK  185  A    between atoms: _430  and  _431
REMARK  186  A    between atoms: _434  and  _436
REMARK  187  A    between atoms: _436  and  _437
REMARK  188  A    between atoms: _436  and  _439
REMARK  189  A    between atoms: _439  and  _440
REMARK  190  A    between atoms: _445  and  _447
REMARK  191  A    between atoms: _447  and  _448
REMARK  192  A    between atoms: _447  and  _450
REMARK  193  A    between atoms: _450  and  _451
REMARK  194  A    between atoms: _451  and  _452
REMARK  195  A    between atoms: _457  and  _459
REMARK  196  A    between atoms: _459  and  _460
REMARK  197  A    between atoms: _462  and  _464
REMARK  198  A    between atoms: _464  and  _465
REMARK  199  A    between atoms: _464  and  _467
REMARK  200  A    between atoms: _467  and  _468
REMARK  201  A    between atoms: _471  and  _473
REMARK  202  A    between atoms: _473  and  _474
REMARK  203  A    between atoms: _477  and  _479
REMARK  204  A    between atoms: _479  and  _480
REMARK  205  A    between atoms: _479  and  _482
REMARK  206  A    between atoms: _482  and  _483
REMARK  207  A    between atoms: _486  and  _488
REMARK  208  A    between atoms: _488  and  _489
REMARK  209  A    between atoms: _488  and  _491
REMARK  210  A    between atoms: _491  and  _492
REMARK  211  A    between atoms: _495  and  _497
REMARK  212  A    between atoms: _497  and  _498
REMARK  213  A    between atoms: _497  and  _500
REMARK  214  A    between atoms: _500  and  _501
REMARK  215  A    between atoms: _506  and  _508
REMARK  216  A    between atoms: _508  and  _509
REMARK  217  A    between atoms: _508  and  _511
REMARK  218  A    between atoms: _511  and  _512
REMARK  219  A    between atoms: _512  and  _513
REMARK  220  A    between atoms: _513  and  _514
REMARK  221  A    between atoms: _523  and  _525
REMARK  222  A    between atoms: _525  and  _526
REMARK  223  A    between atoms: _525  and  _528
REMARK  224  A    between atoms: _528  and  _529
REMARK  225  A    between atoms: _532  and  _534
REMARK  226  A    between atoms: _534  and  _535
REMARK  227  A    between atoms: _534  and  _537
REMARK  228  A    between atoms: _537  and  _538
REMARK  229  A    between atoms: _541  and  _543
REMARK  230  A    between atoms: _543  and  _544
REMARK  231  A    between atoms: _543  and  _546
REMARK  232  A    between atoms: _546  and  _547
REMARK  233  A    between atoms: _549  and  _551
REMARK  234  A    between atoms: _551  and  _552
REMARK  235  A    between atoms: _551  and  _554
REMARK  236  A    between atoms: _554  and  _555
REMARK  237  A    between atoms: _560  and  _562
REMARK  238  A    between atoms: _562  and  _563
REMARK  239  A    between atoms: _562  and  _565
REMARK  240  A    between atoms: _565  and  _566
REMARK  241  A    between atoms: _569  and  _571
REMARK  242  A    between atoms: _571  and  _572
REMARK  243  A    between atoms: _571  and  _574
REMARK  244  A    between atoms: _577  and  _579
REMARK  245  A    between atoms: _579  and  _580
REMARK  246  A    between atoms: _579  and  _582
REMARK  247  A    between atoms: _585  and  _587
REMARK  248  A    between atoms: _587  and  _588
REMARK  249  A    between atoms: _587  and  _590
REMARK  250  A    between atoms: _590  and  _591
REMARK  251  A    between atoms: _591  and  _592
REMARK  252  A    between atoms: _592  and  _593
REMARK  253  A    between atoms: _593  and  _594
REMARK  254  A    between atoms: _598  and  _600
REMARK  255  A    between atoms: _600  and  _601
REMARK  256  A    between atoms: _600  and  _603
REMARK  257  A    between atoms: _603  and  _604
REMARK  258  A    between atoms: _604  and  _605
REMARK  259  A    between atoms: _605  and  _606
REMARK  260  A    between atoms: _606  and  _607
REMARK  261  A    between atoms: _611  and  _613
REMARK  262  A    between atoms: _613  and  _614
REMARK  263  A    between atoms: _613  and  _616
REMARK  264  A    between atoms: _616  and  _617
REMARK  265  A    between atoms: _620  and  _622
REMARK  266  A    between atoms: _622  and  _623
REMARK  267  A    between atoms: _622  and  _625
REMARK  268  A    between atoms: _625  and  _626
REMARK  269  A    between atoms: _629  and  _631
REMARK  270  A    between atoms: _631  and  _632
REMARK  271  A    between atoms: _631  and  _634
REMARK  272  A    between atoms: _634  and  _635
REMARK  273  A    between atoms: _638  and  _640
REMARK  274  A    between atoms: _640  and  _641
REMARK  275  A    between atoms: _640  and  _643
REMARK  276  A    between atoms: _643  and  _644
REMARK  277  A    between atoms: _650  and  _652
REMARK  278  A    between atoms: _652  and  _653
REMARK  279  A    between atoms: _655  and  _657
REMARK  280  A    between atoms: _657  and  _658
REMARK  281  A    between atoms: _657  and  _660
REMARK  282  A    between atoms: _660  and  _661
REMARK  283  A    between atoms: _664  and  _666
REMARK  284  A    between atoms: _666  and  _667
REMARK  285  A    between atoms: _670  and  _672
REMARK  286  A    between atoms: _672  and  _673
REMARK  287  A    between atoms: _672  and  _675
REMARK  288  A    between atoms: _675  and  _676
REMARK  289  A    between atoms: _676  and  _677
REMARK  290  A    between atoms: _679  and  _681
REMARK  291  A    between atoms: _681  and  _682
REMARK  292  A    between atoms: _681  and  _684
REMARK  293  A    between atoms: _684  and  _685
REMARK  294  A    between atoms: _685  and  _686
REMARK  295  A    between atoms: _688  and  _690
REMARK  296  A    between atoms: _690  and  _691
REMARK  297  A    between atoms: _690  and  _693
REMARK  298  A    between atoms: _693  and  _694
REMARK  299  A    between atoms: _697  and  _699
REMARK  300  A    between atoms: _699  and  _700
REMARK  301  A    between atoms: _699  and  _702
REMARK  302  A    between atoms: _702  and  _703
REMARK  303  A    between atoms: _706  and  _708
REMARK  304  A    between atoms: _708  and  _709
REMARK  305  A    between atoms: _708  and  _711
REMARK  306  A    between atoms: _711  and  _712
REMARK  307  A    between atoms: _712  and  _713
REMARK                            x       y       z     vdW  Elec       q    Type
REMARK                         _______ _______ _______ _____ _____    ______ ____
ROOT
ATOM      1  O   HOH     1      47.229  50.268  16.088  0.00  0.00    +0.000 OA
ENDROOT
TORSDOF 0
REMARK  Name = ../refined-set-2016/3npc/3npc_pocket.pdb
REMARK  307 active torsions:
REMARK  status: ('A' for Active; 'I' for Inactive)
REMARK    1  A    between atoms: _1  and  _3
REMARK    2  A    between atoms: _3  and  _4
REMARK    3  A    between atoms: _3  and  _6
REMARK    4  A    between atoms: _6  and  _7
REMARK    5  A    between atoms: _10  and  _12
REMARK    6  A    between atoms: _12  and  _13
REMARK    7  A    between atoms: _15  and  _17
REMARK    8  A    between atoms: _17  and  _18
REMARK    9  A    between atoms: _17  and  _20
REMARK   10  A    between atoms: _20  and  _21
REMARK   11  A    between atoms: _21  and  _22
REMARK   12  A    between atoms: _27  and  _29
REMARK   13  A    between atoms: _29  and  _30
REMARK   14  A    between atoms: _29  and  _32
REMARK   15  A    between atoms: _32  and  _33
REMARK   16  A    between atoms: _36  and  _38
REMARK   17  A    between atoms: _38  and  _39
REMARK   18  A    between atoms: _38  and  _41
REMARK   19  A    between atoms: _44  and  _46
REMARK   20  A    between atoms: _46  and  _47
REMARK   21  A    between atoms: _46  and  _49
REMARK   22  A    between atoms: _51  and  _53
REMARK   23  A    between atoms: _53  and  _54
REMARK   24  A    between atoms: _57  and  _59
REMARK   25  A    between atoms: _59  and  _60
REMARK   26  A    between atoms: _59  and  _62
REMARK   27  A    between atoms: _62  and  _63
REMARK   28  A    between atoms: _68  and  _70
REMARK   29  A    between atoms: _70  and  _71
REMARK   30  A    between atoms: _70  and  _73
REMARK   31  A    between atoms: _76  and  _78
REMARK   32  A    between atoms: _78  and  _79
REMARK   33  A    between atoms: _82  and  _84
REMARK   34  A    between atoms: _84  and  _85
REMARK   35  A    between atoms: _84  and  _87
REMARK   36  A    between atoms: _90  and  _92
REMARK   37  A    between atoms: _92  and  _93
REMARK   38  A    between atoms: _92  and  _95
REMARK   39  A    between atoms: _95  and  _96
REMARK   40  A    between atoms: _96  and  _97
REMARK   41  A    between atoms: _97  and  _98
REMARK   42  A    between atoms: _98  and  _99
REMARK   43  A    between atoms: _103  and  _105
REMARK   44  A    between atoms: _105  and  _106
REMARK   45  A    between atoms: _105  and  _108
REMARK   46  A    between atoms: _108  and  _109
REMARK   47  A    between atoms: _109  and  _110
REMARK   48  A    between atoms: _110  and  _111
REMARK   49  A    between atoms: _111  and  _112
REMARK   50  A    between atoms: _116  and  _118
REMARK   51  A    between atoms: _118  and  _119
REMARK   52  A    between atoms: _118  and  _121
REMARK   53  A    between atoms: _121  and  _122
REMARK   54  A    between atoms: _125  and  _127
REMARK   55  A    between atoms: _127  and  _128
REMARK   56  A    between atoms: _127  and  _130
REMARK   57  A    between atoms: _130  and  _131
REMARK   58  A    between atoms: _134  and  _136
REMARK   59  A    between atoms: _136  and  _137
REMARK   60  A    between atoms: _136  and  _139
REMARK   61  A    between atoms: _139  and  _140
REMARK   62  A    between atoms: _145  and  _147
REMARK   63  A    between atoms: _147  and  _148
REMARK   64  A    between atoms: _147  and  _150
REMARK   65  A    between atoms: _150  and  _151
REMARK   66  A    between atoms: _151  and  _152
REMARK   67  A    between atoms: _152  and  _153
REMARK   68  A    between atoms: _153  and  _154
REMARK   69  A    between atoms: _158  and  _160
REMARK   70  A    between atoms: _160  and  _161
REMARK   71  A    between atoms: _160  and  _163
REMARK   72  A    between atoms: _163  and  _164
REMARK   73  A    between atoms: _164  and  _165
REMARK   74  A    between atoms: _165  and  _166
REMARK   75  A    between atoms: _175  and  _177
REMARK   76  A    between atoms: _177  and  _178
REMARK   77  A    between atoms: _181  and  _183
REMARK   78  A    between atoms: _183  and  _184
REMARK   79  A    between atoms: _183  and  _186
REMARK   80  A    between atoms: _186  and  _187
REMARK   81  A    between atoms: _192  and  _193
REMARK   82  A    between atoms: _195  and  _197
REMARK   83  A    between atoms: _197  and  _198
REMARK   84  A    between atoms: _197  and  _200
REMARK   85  A    between atoms: _200  and  _201
REMARK   86  A    between atoms: _201  and  _202
REMARK   87  A    between atoms: _202  and  _203
REMARK   88  A    between atoms: _212  and  _214
REMARK   89  A    between atoms: _214  and  _215
REMARK   90  A    between atoms: _214  and  _217
REMARK   91  A    between atoms: _217  and  _218
REMARK   92  A    between atoms: _218  and  _219
REMARK   93  A    between atoms: _222  and  _224
REMARK   94  A    between atoms: _224  and  _225
REMARK   95  A    between atoms: _224  and  _227
REMARK   96  A    between atoms: _227  and  _228
REMARK   97  A    between atoms: _231  and  _233
REMARK   98  A    between atoms: _233  and  _234
REMARK   99  A    between atoms: _233  and  _236
REMARK  100  A    between atoms: _239  and  _241
REMARK  101  A    between atoms: _241  and  _242
REMARK  102  A    between atoms: _241  and  _244
REMARK  103  A    between atoms: _244  and  _245
REMARK  104  A    between atoms: _248  and  _250
REMARK  105  A    between atoms: _250  and  _251
REMARK  106  A    between atoms: _250  and  _253
REMARK  107  A    between atoms: _253  and  _254
REMARK  108  A    between atoms: _257  and  _259
REMARK  109  A    between atoms: _259  and  _260
REMARK  110  A    between atoms: _259  and  _262
REMARK  111  A    between atoms: _262  and  _263
REMARK  112  A    between atoms: _263  and  _264
REMARK  113  A    between atoms: _264  and  _265
REMARK  114  A    between atoms: _265  and  _266
REMARK  115  A    between atoms: _270  and  _272
REMARK  116  A    between atoms: _272  and  _273
REMARK  117  A    between atoms: _272  and  _275
REMARK  118  A    between atoms: _277  and  _279
REMARK  119  A    between atoms: _279  and  _280
REMARK  120  A    between atoms: _279  and  _282
REMARK  121  A    between atoms: _285  and  _287
REMARK  122  A    between atoms: _287  and  _288
REMARK  123  A    between atoms: _287  and  _290
REMARK  124  A    between atoms: _290  and  _291
REMARK  125  A    between atoms: _296  and  _298
REMARK  126  A    between atoms: _298  and  _299
REMARK  127  A    between atoms: _298  and  _301
REMARK  128  A    between atoms: _301  and  _302
REMARK  129  A    between atoms: _305  and  _307
REMARK  130  A    between atoms: _307  and  _308
REMARK  131  A    between atoms: _307  and  _310
REMARK  132  A    between atoms: _310  and  _311
REMARK  133  A    between atoms: _314  and  _316
REMARK  134  A    between atoms: _316  and  _317
REMARK  135  A    between atoms: _316  and  _319
REMARK  136  A    between atoms: _319  and  _320
REMARK  137  A    between atoms: _322  and  _324
REMARK  138  A    between atoms: _324  and  _325
REMARK  139  A    between atoms: _324  and  _327
REMARK  140  A    between atoms: _327  and  _328
REMARK  141  A    between atoms: _331  and  _333
REMARK  142  A    between atoms: _333  and  _334
REMARK  143  A    between atoms: _333  and  _336
REMARK  144  A    between atoms: _336  and  _337
REMARK  145  A    between atoms: _340  and  _342
REMARK  146  A    between atoms: _342  and  _343
REMARK  147  A    between atoms: _342  and  _345
REMARK  148  A    between atoms: _345  and  _346
REMARK  149  A    between atoms: _351  and  _353
REMARK  150  A    between atoms: _353  and  _354
REMARK  151  A    between atoms: _353  and  _356
REMARK  152  A    between atoms: _356  and  _357
REMARK  153  A    between atoms: _362  and  _363
REMARK  154  A    between atoms: _365  and  _367
REMARK  155  A    between atoms: _367  and  _368
REMARK  156  A    between atoms: _367  and  _370
REMARK  157  A    between atoms: _370  and  _371
REMARK  158  A    between atoms: _374  and  _376
REMARK  159  A    between atoms: _376  and  _377
REMARK  160  A    between atoms: _376  and  _379
REMARK  161  A    between atoms: _382  and  _384
REMARK  162  A    between atoms: _384  and  _385
REMARK  163  A    between atoms: _384  and  _387
REMARK  164  A    between atoms: _387  and  _388
REMARK  165  A    between atoms: _388  and  _389
REMARK  166  A    between atoms: _391  and  _393
REMARK  167  A    between atoms: _393  and  _394
REMARK  168  A    between atoms: _393  and  _396
REMARK  169  A    between atoms: _396  and  _397
REMARK  170  A    between atoms: _397  and  _398
REMARK  171  A    between atoms: _401  and  _403
REMARK  172  A    between atoms: _403  and  _404
REMARK  173  A    between atoms: _403  and  _406
REMARK  174  A    between atoms: _406  and  _407
REMARK  175  A    between atoms: _410  and  _412
REMARK  176  A    between atoms: _412  and  _413
REMARK  177  A    between atoms: _412  and  _415
REMARK  178  A    between atoms: _415  and  _416
REMARK  179  A    between atoms: _416  and  _417
REMARK  180  A    between atoms: _419  and  _421
REMARK  181  A    between atoms: _421  and  _422
REMARK  182  A    between atoms: _421  and  _424
REMARK  183  A    between atoms: _424  and  _425
REMARK  184  A    between atoms: _428  and  _430
REMARK  185  A    between atoms: _430  and  _431
REMARK  186  A    between atoms: _434  and  _436
REMARK  187  A    between atoms: _436  and  _437
REMARK  188  A    between atoms: _436  and  _439
REMARK  189  A    between atoms: _439  and  _440
REMARK  190  A    between atoms: _445  and  _447
REMARK  191  A    between atoms: _447  and  _448
REMARK  192  A    between atoms: _447  and  _450
REMARK  193  A    between atoms: _450  and  _451
REMARK  194  A    between atoms: _451  and  _452
REMARK  195  A    between atoms: _457  and  _459
REMARK  196  A    between atoms: _459  and  _460
REMARK  197  A    between atoms: _462  and  _464
REMARK  198  A    between atoms: _464  and  _465
REMARK  199  A    between atoms: _464  and  _467
REMARK  200  A    between atoms: _467  and  _468
REMARK  201  A    between atoms: _471  and  _473
REMARK  202  A    between atoms: _473  and  _474
REMARK  203  A    between atoms: _477  and  _479
REMARK  204  A    between atoms: _479  and  _480
REMARK  205  A    between atoms: _479  and  _482
REMARK  206  A    between atoms: _482  and  _483
REMARK  207  A    between atoms: _486  and  _488
REMARK  208  A    between atoms: _488  and  _489
REMARK  209  A    between atoms: _488  and  _491
REMARK  210  A    between atoms: _491  and  _492
REMARK  211  A    between atoms: _495  and  _497
REMARK  212  A    between atoms: _497  and  _498
REMARK  213  A    between atoms: _497  and  _500
REMARK  214  A    between atoms: _500  and  _501
REMARK  215  A    between atoms: _506  and  _508
REMARK  216  A    between atoms: _508  and  _509
REMARK  217  A    between atoms: _508  and  _511
REMARK  218  A    between atoms: _511  and  _512
REMARK  219  A    between atoms: _512  and  _513
REMARK  220  A    between atoms: _513  and  _514
REMARK  221  A    between atoms: _523  and  _525
REMARK  222  A    between atoms: _525  and  _526
REMARK  223  A    between atoms: _525  and  _528
REMARK  224  A    between atoms: _528  and  _529
REMARK  225  A    between atoms: _532  and  _534
REMARK  226  A    between atoms: _534  and  _535
REMARK  227  A    between atoms: _534  and  _537
REMARK  228  A    between atoms: _537  and  _538
REMARK  229  A    between atoms: _541  and  _543
REMARK  230  A    between atoms: _543  and  _544
REMARK  231  A    between atoms: _543  and  _546
REMARK  232  A    between atoms: _546  and  _547
REMARK  233  A    between atoms: _549  and  _551
REMARK  234  A    between atoms: _551  and  _552
REMARK  235  A    between atoms: _551  and  _554
REMARK  236  A    between atoms: _554  and  _555
REMARK  237  A    between atoms: _560  and  _562
REMARK  238  A    between atoms: _562  and  _563
REMARK  239  A    between atoms: _562  and  _565
REMARK  240  A    between atoms: _565  and  _566
REMARK  241  A    between atoms: _569  and  _571
REMARK  242  A    between atoms: _571  and  _572
REMARK  243  A    between atoms: _571  and  _574
REMARK  244  A    between atoms: _577  and  _579
REMARK  245  A    between atoms: _579  and  _580
REMARK  246  A    between atoms: _579  and  _582
REMARK  247  A    between atoms: _585  and  _587
REMARK  248  A    between atoms: _587  and  _588
REMARK  249  A    between atoms: _587  and  _590
REMARK  250  A    between atoms: _590  and  _591
REMARK  251  A    between atoms: _591  and  _592
REMARK  252  A    between atoms: _592  and  _593
REMARK  253  A    between atoms: _593  and  _594
REMARK  254  A    between atoms: _598  and  _600
REMARK  255  A    between atoms: _600  and  _601
REMARK  256  A    between atoms: _600  and  _603
REMARK  257  A    between atoms: _603  and  _604
REMARK  258  A    between atoms: _604  and  _605
REMARK  259  A    between atoms: _605  and  _606
REMARK  260  A    between atoms: _606  and  _607
REMARK  261  A    between atoms: _611  and  _613
REMARK  262  A    between atoms: _613  and  _614
REMARK  263  A    between atoms: _613  and  _616
REMARK  264  A    between atoms: _616  and  _617
REMARK  265  A    between atoms: _620  and  _622
REMARK  266  A    between atoms: _622  and  _623
REMARK  267  A    between atoms: _622  and  _625
REMARK  268  A    between atoms: _625  and  _626
REMARK  269  A    between atoms: _629  and  _631
REMARK  270  A    between atoms: _631  and  _632
REMARK  271  A    between atoms: _631  and  _634
REMARK  272  A    between atoms: _634  and  _635
REMARK  273  A    between atoms: _638  and  _640
REMARK  274  A    between atoms: _640  and  _641
REMARK  275  A    between atoms: _640  and  _643
REMARK  276  A    between atoms: _643  and  _644
REMARK  277  A    between atoms: _650  and  _652
REMARK  278  A    between atoms: _652  and  _653
REMARK  279  A    between atoms: _655  and  _657
REMARK  280  A    between atoms: _657  and  _658
REMARK  281  A    between atoms: _657  and  _660
REMARK  282  A    between atoms: _660  and  _661
REMARK  283  A    between atoms: _664  and  _666
REMARK  284  A    between atoms: _666  and  _667
REMARK  285  A    between atoms: _670  and  _672
REMARK  286  A    between atoms: _672  and  _673
REMARK  287  A    between atoms: _672  and  _675
REMARK  288  A    between atoms: _675  and  _676
REMARK  289  A    between atoms: _676  and  _677
REMARK  290  A    between atoms: _679  and  _681
REMARK  291  A    between atoms: _681  and  _682
REMARK  292  A    between atoms: _681  and  _684
REMARK  293  A    between atoms: _684  and  _685
REMARK  294  A    between atoms: _685  and  _686
REMARK  295  A    between atoms: _688  and  _690
REMARK  296  A    between atoms: _690  and  _691
REMARK  297  A    between atoms: _690  and  _693
REMARK  298  A    between atoms: _693  and  _694
REMARK  299  A    between atoms: _697  and  _699
REMARK  300  A    between atoms: _699  and  _700
REMARK  301  A    between atoms: _699  and  _702
REMARK  302  A    between atoms: _702  and  _703
REMARK  303  A    between atoms: _706  and  _708
REMARK  304  A    between atoms: _708  and  _709
REMARK  305  A    between atoms: _708  and  _711
REMARK  306  A    between atoms: _711  and  _712
REMARK  307  A    between atoms: _712  and  _713
REMARK                            x       y       z     vdW  Elec       q    Type
REMARK                         _______ _______ _______ _____ _____    ______ ____
ROOT
ATOM      1  O   HOH     1      55.285  45.558  13.794  0.00  0.00    +0.000 OA
ENDROOT
TORSDOF 0
REMARK  Name = ../refined-set-2016/3npc/3npc_pocket.pdb
REMARK  307 active torsions:
REMARK  status: ('A' for Active; 'I' for Inactive)
REMARK    1  A    between atoms: _1  and  _3
REMARK    2  A    between atoms: _3  and  _4
REMARK    3  A    between atoms: _3  and  _6
REMARK    4  A    between atoms: _6  and  _7
REMARK    5  A    between atoms: _10  and  _12
REMARK    6  A    between atoms: _12  and  _13
REMARK    7  A    between atoms: _15  and  _17
REMARK    8  A    between atoms: _17  and  _18
REMARK    9  A    between atoms: _17  and  _20
REMARK   10  A    between atoms: _20  and  _21
REMARK   11  A    between atoms: _21  and  _22
REMARK   12  A    between atoms: _27  and  _29
REMARK   13  A    between atoms: _29  and  _30
REMARK   14  A    between atoms: _29  and  _32
REMARK   15  A    between atoms: _32  and  _33
REMARK   16  A    between atoms: _36  and  _38
REMARK   17  A    between atoms: _38  and  _39
REMARK   18  A    between atoms: _38  and  _41
REMARK   19  A    between atoms: _44  and  _46
REMARK   20  A    between atoms: _46  and  _47
REMARK   21  A    between atoms: _46  and  _49
REMARK   22  A    between atoms: _51  and  _53
REMARK   23  A    between atoms: _53  and  _54
REMARK   24  A    between atoms: _57  and  _59
REMARK   25  A    between atoms: _59  and  _60
REMARK   26  A    between atoms: _59  and  _62
REMARK   27  A    between atoms: _62  and  _63
REMARK   28  A    between atoms: _68  and  _70
REMARK   29  A    between atoms: _70  and  _71
REMARK   30  A    between atoms: _70  and  _73
REMARK   31  A    between atoms: _76  and  _78
REMARK   32  A    between atoms: _78  and  _79
REMARK   33  A    between atoms: _82  and  _84
REMARK   34  A    between atoms: _84  and  _85
REMARK   35  A    between atoms: _84  and  _87
REMARK   36  A    between atoms: _90  and  _92
REMARK   37  A    between atoms: _92  and  _93
REMARK   38  A    between atoms: _92  and  _95
REMARK   39  A    between atoms: _95  and  _96
REMARK   40  A    between atoms: _96  and  _97
REMARK   41  A    between atoms: _97  and  _98
REMARK   42  A    between atoms: _98  and  _99
REMARK   43  A    between atoms: _103  and  _105
REMARK   44  A    between atoms: _105  and  _106
REMARK   45  A    between atoms: _105  and  _108
REMARK   46  A    between atoms: _108  and  _109
REMARK   47  A    between atoms: _109  and  _110
REMARK   48  A    between atoms: _110  and  _111
REMARK   49  A    between atoms: _111  and  _112
REMARK   50  A    between atoms: _116  and  _118
REMARK   51  A    between atoms: _118  and  _119
REMARK   52  A    between atoms: _118  and  _121
REMARK   53  A    between atoms: _121  and  _122
REMARK   54  A    between atoms: _125  and  _127
REMARK   55  A    between atoms: _127  and  _128
REMARK   56  A    between atoms: _127  and  _130
REMARK   57  A    between atoms: _130  and  _131
REMARK   58  A    between atoms: _134  and  _136
REMARK   59  A    between atoms: _136  and  _137
REMARK   60  A    between atoms: _136  and  _139
REMARK   61  A    between atoms: _139  and  _140
REMARK   62  A    between atoms: _145  and  _147
REMARK   63  A    between atoms: _147  and  _148
REMARK   64  A    between atoms: _147  and  _150
REMARK   65  A    between atoms: _150  and  _151
REMARK   66  A    between atoms: _151  and  _152
REMARK   67  A    between atoms: _152  and  _153
REMARK   68  A    between atoms: _153  and  _154
REMARK   69  A    between atoms: _158  and  _160
REMARK   70  A    between atoms: _160  and  _161
REMARK   71  A    between atoms: _160  and  _163
REMARK   72  A    between atoms: _163  and  _164
REMARK   73  A    between atoms: _164  and  _165
REMARK   74  A    between atoms: _165  and  _166
REMARK   75  A    between atoms: _175  and  _177
REMARK   76  A    between atoms: _177  and  _178
REMARK   77  A    between atoms: _181  and  _183
REMARK   78  A    between atoms: _183  and  _184
REMARK   79  A    between atoms: _183  and  _186
REMARK   80  A    between atoms: _186  and  _187
REMARK   81  A    between atoms: _192  and  _193
REMARK   82  A    between atoms: _195  and  _197
REMARK   83  A    between atoms: _197  and  _198
REMARK   84  A    between atoms: _197  and  _200
REMARK   85  A    between atoms: _200  and  _201
REMARK   86  A    between atoms: _201  and  _202
REMARK   87  A    between atoms: _202  and  _203
REMARK   88  A    between atoms: _212  and  _214
REMARK   89  A    between atoms: _214  and  _215
REMARK   90  A    between atoms: _214  and  _217
REMARK   91  A    between atoms: _217  and  _218
REMARK   92  A    between atoms: _218  and  _219
REMARK   93  A    between atoms: _222  and  _224
REMARK   94  A    between atoms: _224  and  _225
REMARK   95  A    between atoms: _224  and  _227
REMARK   96  A    between atoms: _227  and  _228
REMARK   97  A    between atoms: _231  and  _233
REMARK   98  A    between atoms: _233  and  _234
REMARK   99  A    between atoms: _233  and  _236
REMARK  100  A    between atoms: _239  and  _241
REMARK  101  A    between atoms: _241  and  _242
REMARK  102  A    between atoms: _241  and  _244
REMARK  103  A    between atoms: _244  and  _245
REMARK  104  A    between atoms: _248  and  _250
REMARK  105  A    between atoms: _250  and  _251
REMARK  106  A    between atoms: _250  and  _253
REMARK  107  A    between atoms: _253  and  _254
REMARK  108  A    between atoms: _257  and  _259
REMARK  109  A    between atoms: _259  and  _260
REMARK  110  A    between atoms: _259  and  _262
REMARK  111  A    between atoms: _262  and  _263
REMARK  112  A    between atoms: _263  and  _264
REMARK  113  A    between atoms: _264  and  _265
REMARK  114  A    between atoms: _265  and  _266
REMARK  115  A    between atoms: _270  and  _272
REMARK  116  A    between atoms: _272  and  _273
REMARK  117  A    between atoms: _272  and  _275
REMARK  118  A    between atoms: _277  and  _279
REMARK  119  A    between atoms: _279  and  _280
REMARK  120  A    between atoms: _279  and  _282
REMARK  121  A    between atoms: _285  and  _287
REMARK  122  A    between atoms: _287  and  _288
REMARK  123  A    between atoms: _287  and  _290
REMARK  124  A    between atoms: _290  and  _291
REMARK  125  A    between atoms: _296  and  _298
REMARK  126  A    between atoms: _298  and  _299
REMARK  127  A    between atoms: _298  and  _301
REMARK  128  A    between atoms: _301  and  _302
REMARK  129  A    between atoms: _305  and  _307
REMARK  130  A    between atoms: _307  and  _308
REMARK  131  A    between atoms: _307  and  _310
REMARK  132  A    between atoms: _310  and  _311
REMARK  133  A    between atoms: _314  and  _316
REMARK  134  A    between atoms: _316  and  _317
REMARK  135  A    between atoms: _316  and  _319
REMARK  136  A    between atoms: _319  and  _320
REMARK  137  A    between atoms: _322  and  _324
REMARK  138  A    between atoms: _324  and  _325
REMARK  139  A    between atoms: _324  and  _327
REMARK  140  A    between atoms: _327  and  _328
REMARK  141  A    between atoms: _331  and  _333
REMARK  142  A    between atoms: _333  and  _334
REMARK  143  A    between atoms: _333  and  _336
REMARK  144  A    between atoms: _336  and  _337
REMARK  145  A    between atoms: _340  and  _342
REMARK  146  A    between atoms: _342  and  _343
REMARK  147  A    between atoms: _342  and  _345
REMARK  148  A    between atoms: _345  and  _346
REMARK  149  A    between atoms: _351  and  _353
REMARK  150  A    between atoms: _353  and  _354
REMARK  151  A    between atoms: _353  and  _356
REMARK  152  A    between atoms: _356  and  _357
REMARK  153  A    between atoms: _362  and  _363
REMARK  154  A    between atoms: _365  and  _367
REMARK  155  A    between atoms: _367  and  _368
REMARK  156  A    between atoms: _367  and  _370
REMARK  157  A    between atoms: _370  and  _371
REMARK  158  A    between atoms: _374  and  _376
REMARK  159  A    between atoms: _376  and  _377
REMARK  160  A    between atoms: _376  and  _379
REMARK  161  A    between atoms: _382  and  _384
REMARK  162  A    between atoms: _384  and  _385
REMARK  163  A    between atoms: _384  and  _387
REMARK  164  A    between atoms: _387  and  _388
REMARK  165  A    between atoms: _388  and  _389
REMARK  166  A    between atoms: _391  and  _393
REMARK  167  A    between atoms: _393  and  _394
REMARK  168  A    between atoms: _393  and  _396
REMARK  169  A    between atoms: _396  and  _397
REMARK  170  A    between atoms: _397  and  _398
REMARK  171  A    between atoms: _401  and  _403
REMARK  172  A    between atoms: _403  and  _404
REMARK  173  A    between atoms: _403  and  _406
REMARK  174  A    between atoms: _406  and  _407
REMARK  175  A    between atoms: _410  and  _412
REMARK  176  A    between atoms: _412  and  _413
REMARK  177  A    between atoms: _412  and  _415
REMARK  178  A    between atoms: _415  and  _416
REMARK  179  A    between atoms: _416  and  _417
REMARK  180  A    between atoms: _419  and  _421
REMARK  181  A    between atoms: _421  and  _422
REMARK  182  A    between atoms: _421  and  _424
REMARK  183  A    between atoms: _424  and  _425
REMARK  184  A    between atoms: _428  and  _430
REMARK  185  A    between atoms: _430  and  _431
REMARK  186  A    between atoms: _434  and  _436
REMARK  187  A    between atoms: _436  and  _437
REMARK  188  A    between atoms: _436  and  _439
REMARK  189  A    between atoms: _439  and  _440
REMARK  190  A    between atoms: _445  and  _447
REMARK  191  A    between atoms: _447  and  _448
REMARK  192  A    between atoms: _447  and  _450
REMARK  193  A    between atoms: _450  and  _451
REMARK  194  A    between atoms: _451  and  _452
REMARK  195  A    between atoms: _457  and  _459
REMARK  196  A    between atoms: _459  and  _460
REMARK  197  A    between atoms: _462  and  _464
REMARK  198  A    between atoms: _464  and  _465
REMARK  199  A    between atoms: _464  and  _467
REMARK  200  A    between atoms: _467  and  _468
REMARK  201  A    between atoms: _471  and  _473
REMARK  202  A    between atoms: _473  and  _474
REMARK  203  A    between atoms: _477  and  _479
REMARK  204  A    between atoms: _479  and  _480
REMARK  205  A    between atoms: _479  and  _482
REMARK  206  A    between atoms: _482  and  _483
REMARK  207  A    between atoms: _486  and  _488
REMARK  208  A    between atoms: _488  and  _489
REMARK  209  A    between atoms: _488  and  _491
REMARK  210  A    between atoms: _491  and  _492
REMARK  211  A    between atoms: _495  and  _497
REMARK  212  A    between atoms: _497  and  _498
REMARK  213  A    between atoms: _497  and  _500
REMARK  214  A    between atoms: _500  and  _501
REMARK  215  A    between atoms: _506  and  _508
REMARK  216  A    between atoms: _508  and  _509
REMARK  217  A    between atoms: _508  and  _511
REMARK  218  A    between atoms: _511  and  _512
REMARK  219  A    between atoms: _512  and  _513
REMARK  220  A    between atoms: _513  and  _514
REMARK  221  A    between atoms: _523  and  _525
REMARK  222  A    between atoms: _525  and  _526
REMARK  223  A    between atoms: _525  and  _528
REMARK  224  A    between atoms: _528  and  _529
REMARK  225  A    between atoms: _532  and  _534
REMARK  226  A    between atoms: _534  and  _535
REMARK  227  A    between atoms: _534  and  _537
REMARK  228  A    between atoms: _537  and  _538
REMARK  229  A    between atoms: _541  and  _543
REMARK  230  A    between atoms: _543  and  _544
REMARK  231  A    between atoms: _543  and  _546
REMARK  232  A    between atoms: _546  and  _547
REMARK  233  A    between atoms: _549  and  _551
REMARK  234  A    between atoms: _551  and  _552
REMARK  235  A    between atoms: _551  and  _554
REMARK  236  A    between atoms: _554  and  _555
REMARK  237  A    between atoms: _560  and  _562
REMARK  238  A    between atoms: _562  and  _563
REMARK  239  A    between atoms: _562  and  _565
REMARK  240  A    between atoms: _565  and  _566
REMARK  241  A    between atoms: _569  and  _571
REMARK  242  A    between atoms: _571  and  _572
REMARK  243  A    between atoms: _571  and  _574
REMARK  244  A    between atoms: _577  and  _579
REMARK  245  A    between atoms: _579  and  _580
REMARK  246  A    between atoms: _579  and  _582
REMARK  247  A    between atoms: _585  and  _587
REMARK  248  A    between atoms: _587  and  _588
REMARK  249  A    between atoms: _587  and  _590
REMARK  250  A    between atoms: _590  and  _591
REMARK  251  A    between atoms: _591  and  _592
REMARK  252  A    between atoms: _592  and  _593
REMARK  253  A    between atoms: _593  and  _594
REMARK  254  A    between atoms: _598  and  _600
REMARK  255  A    between atoms: _600  and  _601
REMARK  256  A    between atoms: _600  and  _603
REMARK  257  A    between atoms: _603  and  _604
REMARK  258  A    between atoms: _604  and  _605
REMARK  259  A    between atoms: _605  and  _606
REMARK  260  A    between atoms: _606  and  _607
REMARK  261  A    between atoms: _611  and  _613
REMARK  262  A    between atoms: _613  and  _614
REMARK  263  A    between atoms: _613  and  _616
REMARK  264  A    between atoms: _616  and  _617
REMARK  265  A    between atoms: _620  and  _622
REMARK  266  A    between atoms: _622  and  _623
REMARK  267  A    between atoms: _622  and  _625
REMARK  268  A    between atoms: _625  and  _626
REMARK  269  A    between atoms: _629  and  _631
REMARK  270  A    between atoms: _631  and  _632
REMARK  271  A    between atoms: _631  and  _634
REMARK  272  A    between atoms: _634  and  _635
REMARK  273  A    between atoms: _638  and  _640
REMARK  274  A    between atoms: _640  and  _641
REMARK  275  A    between atoms: _640  and  _643
REMARK  276  A    between atoms: _643  and  _644
REMARK  277  A    between atoms: _650  and  _652
REMARK  278  A    between atoms: _652  and  _653
REMARK  279  A    between atoms: _655  and  _657
REMARK  280  A    between atoms: _657  and  _658
REMARK  281  A    between atoms: _657  and  _660
REMARK  282  A    between atoms: _660  and  _661
REMARK  283  A    between atoms: _664  and  _666
REMARK  284  A    between atoms: _666  and  _667
REMARK  285  A    between atoms: _670  and  _672
REMARK  286  A    between atoms: _672  and  _673
REMARK  287  A    between atoms: _672  and  _675
REMARK  288  A    between atoms: _675  and  _676
REMARK  289  A    between atoms: _676  and  _677
REMARK  290  A    between atoms: _679  and  _681
REMARK  291  A    between atoms: _681  and  _682
REMARK  292  A    between atoms: _681  and  _684
REMARK  293  A    between atoms: _684  and  _685
REMARK  294  A    between atoms: _685  and  _686
REMARK  295  A    between atoms: _688  and  _690
REMARK  296  A    between atoms: _690  and  _691
REMARK  297  A    between atoms: _690  and  _693
REMARK  298  A    between atoms: _693  and  _694
REMARK  299  A    between atoms: _697  and  _699
REMARK  300  A    between atoms: _699  and  _700
REMARK  301  A    between atoms: _699  and  _702
REMARK  302  A    between atoms: _702  and  _703
REMARK  303  A    between atoms: _706  and  _708
REMARK  304  A    between atoms: _708  and  _709
REMARK  305  A    between atoms: _708  and  _711
REMARK  306  A    between atoms: _711  and  _712
REMARK  307  A    between atoms: _712  and  _713
REMARK                            x       y       z     vdW  Elec       q    Type
REMARK                         _______ _______ _______ _____ _____    ______ ____
ROOT
ATOM      1  O   HOH     1      56.212  38.565  13.736  0.00  0.00    +0.000 OA
ENDROOT
TORSDOF 0
REMARK  Name = ../refined-set-2016/3npc/3npc_pocket.pdb
REMARK  307 active torsions:
REMARK  status: ('A' for Active; 'I' for Inactive)
REMARK    1  A    between atoms: _1  and  _3
REMARK    2  A    between atoms: _3  and  _4
REMARK    3  A    between atoms: _3  and  _6
REMARK    4  A    between atoms: _6  and  _7
REMARK    5  A    between atoms: _10  and  _12
REMARK    6  A    between atoms: _12  and  _13
REMARK    7  A    between atoms: _15  and  _17
REMARK    8  A    between atoms: _17  and  _18
REMARK    9  A    between atoms: _17  and  _20
REMARK   10  A    between atoms: _20  and  _21
REMARK   11  A    between atoms: _21  and  _22
REMARK   12  A    between atoms: _27  and  _29
REMARK   13  A    between atoms: _29  and  _30
REMARK   14  A    between atoms: _29  and  _32
REMARK   15  A    between atoms: _32  and  _33
REMARK   16  A    between atoms: _36  and  _38
REMARK   17  A    between atoms: _38  and  _39
REMARK   18  A    between atoms: _38  and  _41
REMARK   19  A    between atoms: _44  and  _46
REMARK   20  A    between atoms: _46  and  _47
REMARK   21  A    between atoms: _46  and  _49
REMARK   22  A    between atoms: _51  and  _53
REMARK   23  A    between atoms: _53  and  _54
REMARK   24  A    between atoms: _57  and  _59
REMARK   25  A    between atoms: _59  and  _60
REMARK   26  A    between atoms: _59  and  _62
REMARK   27  A    between atoms: _62  and  _63
REMARK   28  A    between atoms: _68  and  _70
REMARK   29  A    between atoms: _70  and  _71
REMARK   30  A    between atoms: _70  and  _73
REMARK   31  A    between atoms: _76  and  _78
REMARK   32  A    between atoms: _78  and  _79
REMARK   33  A    between atoms: _82  and  _84
REMARK   34  A    between atoms: _84  and  _85
REMARK   35  A    between atoms: _84  and  _87
REMARK   36  A    between atoms: _90  and  _92
REMARK   37  A    between atoms: _92  and  _93
REMARK   38  A    between atoms: _92  and  _95
REMARK   39  A    between atoms: _95  and  _96
REMARK   40  A    between atoms: _96  and  _97
REMARK   41  A    between atoms: _97  and  _98
REMARK   42  A    between atoms: _98  and  _99
REMARK   43  A    between atoms: _103  and  _105
REMARK   44  A    between atoms: _105  and  _106
REMARK   45  A    between atoms: _105  and  _108
REMARK   46  A    between atoms: _108  and  _109
REMARK   47  A    between atoms: _109  and  _110
REMARK   48  A    between atoms: _110  and  _111
REMARK   49  A    between atoms: _111  and  _112
REMARK   50  A    between atoms: _116  and  _118
REMARK   51  A    between atoms: _118  and  _119
REMARK   52  A    between atoms: _118  and  _121
REMARK   53  A    between atoms: _121  and  _122
REMARK   54  A    between atoms: _125  and  _127
REMARK   55  A    between atoms: _127  and  _128
REMARK   56  A    between atoms: _127  and  _130
REMARK   57  A    between atoms: _130  and  _131
REMARK   58  A    between atoms: _134  and  _136
REMARK   59  A    between atoms: _136  and  _137
REMARK   60  A    between atoms: _136  and  _139
REMARK   61  A    between atoms: _139  and  _140
REMARK   62  A    between atoms: _145  and  _147
REMARK   63  A    between atoms: _147  and  _148
REMARK   64  A    between atoms: _147  and  _150
REMARK   65  A    between atoms: _150  and  _151
REMARK   66  A    between atoms: _151  and  _152
REMARK   67  A    between atoms: _152  and  _153
REMARK   68  A    between atoms: _153  and  _154
REMARK   69  A    between atoms: _158  and  _160
REMARK   70  A    between atoms: _160  and  _161
REMARK   71  A    between atoms: _160  and  _163
REMARK   72  A    between atoms: _163  and  _164
REMARK   73  A    between atoms: _164  and  _165
REMARK   74  A    between atoms: _165  and  _166
REMARK   75  A    between atoms: _175  and  _177
REMARK   76  A    between atoms: _177  and  _178
REMARK   77  A    between atoms: _181  and  _183
REMARK   78  A    between atoms: _183  and  _184
REMARK   79  A    between atoms: _183  and  _186
REMARK   80  A    between atoms: _186  and  _187
REMARK   81  A    between atoms: _192  and  _193
REMARK   82  A    between atoms: _195  and  _197
REMARK   83  A    between atoms: _197  and  _198
REMARK   84  A    between atoms: _197  and  _200
REMARK   85  A    between atoms: _200  and  _201
REMARK   86  A    between atoms: _201  and  _202
REMARK   87  A    between atoms: _202  and  _203
REMARK   88  A    between atoms: _212  and  _214
REMARK   89  A    between atoms: _214  and  _215
REMARK   90  A    between atoms: _214  and  _217
REMARK   91  A    between atoms: _217  and  _218
REMARK   92  A    between atoms: _218  and  _219
REMARK   93  A    between atoms: _222  and  _224
REMARK   94  A    between atoms: _224  and  _225
REMARK   95  A    between atoms: _224  and  _227
REMARK   96  A    between atoms: _227  and  _228
REMARK   97  A    between atoms: _231  and  _233
REMARK   98  A    between atoms: _233  and  _234
REMARK   99  A    between atoms: _233  and  _236
REMARK  100  A    between atoms: _239  and  _241
REMARK  101  A    between atoms: _241  and  _242
REMARK  102  A    between atoms: _241  and  _244
REMARK  103  A    between atoms: _244  and  _245
REMARK  104  A    between atoms: _248  and  _250
REMARK  105  A    between atoms: _250  and  _251
REMARK  106  A    between atoms: _250  and  _253
REMARK  107  A    between atoms: _253  and  _254
REMARK  108  A    between atoms: _257  and  _259
REMARK  109  A    between atoms: _259  and  _260
REMARK  110  A    between atoms: _259  and  _262
REMARK  111  A    between atoms: _262  and  _263
REMARK  112  A    between atoms: _263  and  _264
REMARK  113  A    between atoms: _264  and  _265
REMARK  114  A    between atoms: _265  and  _266
REMARK  115  A    between atoms: _270  and  _272
REMARK  116  A    between atoms: _272  and  _273
REMARK  117  A    between atoms: _272  and  _275
REMARK  118  A    between atoms: _277  and  _279
REMARK  119  A    between atoms: _279  and  _280
REMARK  120  A    between atoms: _279  and  _282
REMARK  121  A    between atoms: _285  and  _287
REMARK  122  A    between atoms: _287  and  _288
REMARK  123  A    between atoms: _287  and  _290
REMARK  124  A    between atoms: _290  and  _291
REMARK  125  A    between atoms: _296  and  _298
REMARK  126  A    between atoms: _298  and  _299
REMARK  127  A    between atoms: _298  and  _301
REMARK  128  A    between atoms: _301  and  _302
REMARK  129  A    between atoms: _305  and  _307
REMARK  130  A    between atoms: _307  and  _308
REMARK  131  A    between atoms: _307  and  _310
REMARK  132  A    between atoms: _310  and  _311
REMARK  133  A    between atoms: _314  and  _316
REMARK  134  A    between atoms: _316  and  _317
REMARK  135  A    between atoms: _316  and  _319
REMARK  136  A    between atoms: _319  and  _320
REMARK  137  A    between atoms: _322  and  _324
REMARK  138  A    between atoms: _324  and  _325
REMARK  139  A    between atoms: _324  and  _327
REMARK  140  A    between atoms: _327  and  _328
REMARK  141  A    between atoms: _331  and  _333
REMARK  142  A    between atoms: _333  and  _334
REMARK  143  A    between atoms: _333  and  _336
REMARK  144  A    between atoms: _336  and  _337
REMARK  145  A    between atoms: _340  and  _342
REMARK  146  A    between atoms: _342  and  _343
REMARK  147  A    between atoms: _342  and  _345
REMARK  148  A    between atoms: _345  and  _346
REMARK  149  A    between atoms: _351  and  _353
REMARK  150  A    between atoms: _353  and  _354
REMARK  151  A    between atoms: _353  and  _356
REMARK  152  A    between atoms: _356  and  _357
REMARK  153  A    between atoms: _362  and  _363
REMARK  154  A    between atoms: _365  and  _367
REMARK  155  A    between atoms: _367  and  _368
REMARK  156  A    between atoms: _367  and  _370
REMARK  157  A    between atoms: _370  and  _371
REMARK  158  A    between atoms: _374  and  _376
REMARK  159  A    between atoms: _376  and  _377
REMARK  160  A    between atoms: _376  and  _379
REMARK  161  A    between atoms: _382  and  _384
REMARK  162  A    between atoms: _384  and  _385
REMARK  163  A    between atoms: _384  and  _387
REMARK  164  A    between atoms: _387  and  _388
REMARK  165  A    between atoms: _388  and  _389
REMARK  166  A    between atoms: _391  and  _393
REMARK  167  A    between atoms: _393  and  _394
REMARK  168  A    between atoms: _393  and  _396
REMARK  169  A    between atoms: _396  and  _397
REMARK  170  A    between atoms: _397  and  _398
REMARK  171  A    between atoms: _401  and  _403
REMARK  172  A    between atoms: _403  and  _404
REMARK  173  A    between atoms: _403  and  _406
REMARK  174  A    between atoms: _406  and  _407
REMARK  175  A    between atoms: _410  and  _412
REMARK  176  A    between atoms: _412  and  _413
REMARK  177  A    between atoms: _412  and  _415
REMARK  178  A    between atoms: _415  and  _416
REMARK  179  A    between atoms: _416  and  _417
REMARK  180  A    between atoms: _419  and  _421
REMARK  181  A    between atoms: _421  and  _422
REMARK  182  A    between atoms: _421  and  _424
REMARK  183  A    between atoms: _424  and  _425
REMARK  184  A    between atoms: _428  and  _430
REMARK  185  A    between atoms: _430  and  _431
REMARK  186  A    between atoms: _434  and  _436
REMARK  187  A    between atoms: _436  and  _437
REMARK  188  A    between atoms: _436  and  _439
REMARK  189  A    between atoms: _439  and  _440
REMARK  190  A    between atoms: _445  and  _447
REMARK  191  A    between atoms: _447  and  _448
REMARK  192  A    between atoms: _447  and  _450
REMARK  193  A    between atoms: _450  and  _451
REMARK  194  A    between atoms: _451  and  _452
REMARK  195  A    between atoms: _457  and  _459
REMARK  196  A    between atoms: _459  and  _460
REMARK  197  A    between atoms: _462  and  _464
REMARK  198  A    between atoms: _464  and  _465
REMARK  199  A    between atoms: _464  and  _467
REMARK  200  A    between atoms: _467  and  _468
REMARK  201  A    between atoms: _471  and  _473
REMARK  202  A    between atoms: _473  and  _474
REMARK  203  A    between atoms: _477  and  _479
REMARK  204  A    between atoms: _479  and  _480
REMARK  205  A    between atoms: _479  and  _482
REMARK  206  A    between atoms: _482  and  _483
REMARK  207  A    between atoms: _486  and  _488
REMARK  208  A    between atoms: _488  and  _489
REMARK  209  A    between atoms: _488  and  _491
REMARK  210  A    between atoms: _491  and  _492
REMARK  211  A    between atoms: _495  and  _497
REMARK  212  A    between atoms: _497  and  _498
REMARK  213  A    between atoms: _497  and  _500
REMARK  214  A    between atoms: _500  and  _501
REMARK  215  A    between atoms: _506  and  _508
REMARK  216  A    between atoms: _508  and  _509
REMARK  217  A    between atoms: _508  and  _511
REMARK  218  A    between atoms: _511  and  _512
REMARK  219  A    between atoms: _512  and  _513
REMARK  220  A    between atoms: _513  and  _514
REMARK  221  A    between atoms: _523  and  _525
REMARK  222  A    between atoms: _525  and  _526
REMARK  223  A    between atoms: _525  and  _528
REMARK  224  A    between atoms: _528  and  _529
REMARK  225  A    between atoms: _532  and  _534
REMARK  226  A    between atoms: _534  and  _535
REMARK  227  A    between atoms: _534  and  _537
REMARK  228  A    between atoms: _537  and  _538
REMARK  229  A    between atoms: _541  and  _543
REMARK  230  A    between atoms: _543  and  _544
REMARK  231  A    between atoms: _543  and  _546
REMARK  232  A    between atoms: _546  and  _547
REMARK  233  A    between atoms: _549  and  _551
REMARK  234  A    between atoms: _551  and  _552
REMARK  235  A    between atoms: _551  and  _554
REMARK  236  A    between atoms: _554  and  _555
REMARK  237  A    between atoms: _560  and  _562
REMARK  238  A    between atoms: _562  and  _563
REMARK  239  A    between atoms: _562  and  _565
REMARK  240  A    between atoms: _565  and  _566
REMARK  241  A    between atoms: _569  and  _571
REMARK  242  A    between atoms: _571  and  _572
REMARK  243  A    between atoms: _571  and  _574
REMARK  244  A    between atoms: _577  and  _579
REMARK  245  A    between atoms: _579  and  _580
REMARK  246  A    between atoms: _579  and  _582
REMARK  247  A    between atoms: _585  and  _587
REMARK  248  A    between atoms: _587  and  _588
REMARK  249  A    between atoms: _587  and  _590
REMARK  250  A    between atoms: _590  and  _591
REMARK  251  A    between atoms: _591  and  _592
REMARK  252  A    between atoms: _592  and  _593
REMARK  253  A    between atoms: _593  and  _594
REMARK  254  A    between atoms: _598  and  _600
REMARK  255  A    between atoms: _600  and  _601
REMARK  256  A    between atoms: _600  and  _603
REMARK  257  A    between atoms: _603  and  _604
REMARK  258  A    between atoms: _604  and  _605
REMARK  259  A    between atoms: _605  and  _606
REMARK  260  A    between atoms: _606  and  _607
REMARK  261  A    between atoms: _611  and  _613
REMARK  262  A    between atoms: _613  and  _614
REMARK  263  A    between atoms: _613  and  _616
REMARK  264  A    between atoms: _616  and  _617
REMARK  265  A    between atoms: _620  and  _622
REMARK  266  A    between atoms: _622  and  _623
REMARK  267  A    between atoms: _622  and  _625
REMARK  268  A    between atoms: _625  and  _626
REMARK  269  A    between atoms: _629  and  _631
REMARK  270  A    between atoms: _631  and  _632
REMARK  271  A    between atoms: _631  and  _634
REMARK  272  A    between atoms: _634  and  _635
REMARK  273  A    between atoms: _638  and  _640
REMARK  274  A    between atoms: _640  and  _641
REMARK  275  A    between atoms: _640  and  _643
REMARK  276  A    between atoms: _643  and  _644
REMARK  277  A    between atoms: _650  and  _652
REMARK  278  A    between atoms: _652  and  _653
REMARK  279  A    between atoms: _655  and  _657
REMARK  280  A    between atoms: _657  and  _658
REMARK  281  A    between atoms: _657  and  _660
REMARK  282  A    between atoms: _660  and  _661
REMARK  283  A    between atoms: _664  and  _666
REMARK  284  A    between atoms: _666  and  _667
REMARK  285  A    between atoms: _670  and  _672
REMARK  286  A    between atoms: _672  and  _673
REMARK  287  A    between atoms: _672  and  _675
REMARK  288  A    between atoms: _675  and  _676
REMARK  289  A    between atoms: _676  and  _677
REMARK  290  A    between atoms: _679  and  _681
REMARK  291  A    between atoms: _681  and  _682
REMARK  292  A    between atoms: _681  and  _684
REMARK  293  A    between atoms: _684  and  _685
REMARK  294  A    between atoms: _685  and  _686
REMARK  295  A    between atoms: _688  and  _690
REMARK  296  A    between atoms: _690  and  _691
REMARK  297  A    between atoms: _690  and  _693
REMARK  298  A    between atoms: _693  and  _694
REMARK  299  A    between atoms: _697  and  _699
REMARK  300  A    between atoms: _699  and  _700
REMARK  301  A    between atoms: _699  and  _702
REMARK  302  A    between atoms: _702  and  _703
REMARK  303  A    between atoms: _706  and  _708
REMARK  304  A    between atoms: _708  and  _709
REMARK  305  A    between atoms: _708  and  _711
REMARK  306  A    between atoms: _711  and  _712
REMARK  307  A    between atoms: _712  and  _713
REMARK                            x       y       z     vdW  Elec       q    Type
REMARK                         _______ _______ _______ _____ _____    ______ ____
ROOT
ATOM      1  O   HOH     1      48.074  46.433  17.504  0.00  0.00    +0.000 OA
ENDROOT
TORSDOF 0
REMARK  Name = ../refined-set-2016/3npc/3npc_pocket.pdb
REMARK  307 active torsions:
REMARK  status: ('A' for Active; 'I' for Inactive)
REMARK    1  A    between atoms: _1  and  _3
REMARK    2  A    between atoms: _3  and  _4
REMARK    3  A    between atoms: _3  and  _6
REMARK    4  A    between atoms: _6  and  _7
REMARK    5  A    between atoms: _10  and  _12
REMARK    6  A    between atoms: _12  and  _13
REMARK    7  A    between atoms: _15  and  _17
REMARK    8  A    between atoms: _17  and  _18
REMARK    9  A    between atoms: _17  and  _20
REMARK   10  A    between atoms: _20  and  _21
REMARK   11  A    between atoms: _21  and  _22
REMARK   12  A    between atoms: _27  and  _29
REMARK   13  A    between atoms: _29  and  _30
REMARK   14  A    between atoms: _29  and  _32
REMARK   15  A    between atoms: _32  and  _33
REMARK   16  A    between atoms: _36  and  _38
REMARK   17  A    between atoms: _38  and  _39
REMARK   18  A    between atoms: _38  and  _41
REMARK   19  A    between atoms: _44  and  _46
REMARK   20  A    between atoms: _46  and  _47
REMARK   21  A    between atoms: _46  and  _49
REMARK   22  A    between atoms: _51  and  _53
REMARK   23  A    between atoms: _53  and  _54
REMARK   24  A    between atoms: _57  and  _59
REMARK   25  A    between atoms: _59  and  _60
REMARK   26  A    between atoms: _59  and  _62
REMARK   27  A    between atoms: _62  and  _63
REMARK   28  A    between atoms: _68  and  _70
REMARK   29  A    between atoms: _70  and  _71
REMARK   30  A    between atoms: _70  and  _73
REMARK   31  A    between atoms: _76  and  _78
REMARK   32  A    between atoms: _78  and  _79
REMARK   33  A    between atoms: _82  and  _84
REMARK   34  A    between atoms: _84  and  _85
REMARK   35  A    between atoms: _84  and  _87
REMARK   36  A    between atoms: _90  and  _92
REMARK   37  A    between atoms: _92  and  _93
REMARK   38  A    between atoms: _92  and  _95
REMARK   39  A    between atoms: _95  and  _96
REMARK   40  A    between atoms: _96  and  _97
REMARK   41  A    between atoms: _97  and  _98
REMARK   42  A    between atoms: _98  and  _99
REMARK   43  A    between atoms: _103  and  _105
REMARK   44  A    between atoms: _105  and  _106
REMARK   45  A    between atoms: _105  and  _108
REMARK   46  A    between atoms: _108  and  _109
REMARK   47  A    between atoms: _109  and  _110
REMARK   48  A    between atoms: _110  and  _111
REMARK   49  A    between atoms: _111  and  _112
REMARK   50  A    between atoms: _116  and  _118
REMARK   51  A    between atoms: _118  and  _119
REMARK   52  A    between atoms: _118  and  _121
REMARK   53  A    between atoms: _121  and  _122
REMARK   54  A    between atoms: _125  and  _127
REMARK   55  A    between atoms: _127  and  _128
REMARK   56  A    between atoms: _127  and  _130
REMARK   57  A    between atoms: _130  and  _131
REMARK   58  A    between atoms: _134  and  _136
REMARK   59  A    between atoms: _136  and  _137
REMARK   60  A    between atoms: _136  and  _139
REMARK   61  A    between atoms: _139  and  _140
REMARK   62  A    between atoms: _145  and  _147
REMARK   63  A    between atoms: _147  and  _148
REMARK   64  A    between atoms: _147  and  _150
REMARK   65  A    between atoms: _150  and  _151
REMARK   66  A    between atoms: _151  and  _152
REMARK   67  A    between atoms: _152  and  _153
REMARK   68  A    between atoms: _153  and  _154
REMARK   69  A    between atoms: _158  and  _160
REMARK   70  A    between atoms: _160  and  _161
REMARK   71  A    between atoms: _160  and  _163
REMARK   72  A    between atoms: _163  and  _164
REMARK   73  A    between atoms: _164  and  _165
REMARK   74  A    between atoms: _165  and  _166
REMARK   75  A    between atoms: _175  and  _177
REMARK   76  A    between atoms: _177  and  _178
REMARK   77  A    between atoms: _181  and  _183
REMARK   78  A    between atoms: _183  and  _184
REMARK   79  A    between atoms: _183  and  _186
REMARK   80  A    between atoms: _186  and  _187
REMARK   81  A    between atoms: _192  and  _193
REMARK   82  A    between atoms: _195  and  _197
REMARK   83  A    between atoms: _197  and  _198
REMARK   84  A    between atoms: _197  and  _200
REMARK   85  A    between atoms: _200  and  _201
REMARK   86  A    between atoms: _201  and  _202
REMARK   87  A    between atoms: _202  and  _203
REMARK   88  A    between atoms: _212  and  _214
REMARK   89  A    between atoms: _214  and  _215
REMARK   90  A    between atoms: _214  and  _217
REMARK   91  A    between atoms: _217  and  _218
REMARK   92  A    between atoms: _218  and  _219
REMARK   93  A    between atoms: _222  and  _224
REMARK   94  A    between atoms: _224  and  _225
REMARK   95  A    between atoms: _224  and  _227
REMARK   96  A    between atoms: _227  and  _228
REMARK   97  A    between atoms: _231  and  _233
REMARK   98  A    between atoms: _233  and  _234
REMARK   99  A    between atoms: _233  and  _236
REMARK  100  A    between atoms: _239  and  _241
REMARK  101  A    between atoms: _241  and  _242
REMARK  102  A    between atoms: _241  and  _244
REMARK  103  A    between atoms: _244  and  _245
REMARK  104  A    between atoms: _248  and  _250
REMARK  105  A    between atoms: _250  and  _251
REMARK  106  A    between atoms: _250  and  _253
REMARK  107  A    between atoms: _253  and  _254
REMARK  108  A    between atoms: _257  and  _259
REMARK  109  A    between atoms: _259  and  _260
REMARK  110  A    between atoms: _259  and  _262
REMARK  111  A    between atoms: _262  and  _263
REMARK  112  A    between atoms: _263  and  _264
REMARK  113  A    between atoms: _264  and  _265
REMARK  114  A    between atoms: _265  and  _266
REMARK  115  A    between atoms: _270  and  _272
REMARK  116  A    between atoms: _272  and  _273
REMARK  117  A    between atoms: _272  and  _275
REMARK  118  A    between atoms: _277  and  _279
REMARK  119  A    between atoms: _279  and  _280
REMARK  120  A    between atoms: _279  and  _282
REMARK  121  A    between atoms: _285  and  _287
REMARK  122  A    between atoms: _287  and  _288
REMARK  123  A    between atoms: _287  and  _290
REMARK  124  A    between atoms: _290  and  _291
REMARK  125  A    between atoms: _296  and  _298
REMARK  126  A    between atoms: _298  and  _299
REMARK  127  A    between atoms: _298  and  _301
REMARK  128  A    between atoms: _301  and  _302
REMARK  129  A    between atoms: _305  and  _307
REMARK  130  A    between atoms: _307  and  _308
REMARK  131  A    between atoms: _307  and  _310
REMARK  132  A    between atoms: _310  and  _311
REMARK  133  A    between atoms: _314  and  _316
REMARK  134  A    between atoms: _316  and  _317
REMARK  135  A    between atoms: _316  and  _319
REMARK  136  A    between atoms: _319  and  _320
REMARK  137  A    between atoms: _322  and  _324
REMARK  138  A    between atoms: _324  and  _325
REMARK  139  A    between atoms: _324  and  _327
REMARK  140  A    between atoms: _327  and  _328
REMARK  141  A    between atoms: _331  and  _333
REMARK  142  A    between atoms: _333  and  _334
REMARK  143  A    between atoms: _333  and  _336
REMARK  144  A    between atoms: _336  and  _337
REMARK  145  A    between atoms: _340  and  _342
REMARK  146  A    between atoms: _342  and  _343
REMARK  147  A    between atoms: _342  and  _345
REMARK  148  A    between atoms: _345  and  _346
REMARK  149  A    between atoms: _351  and  _353
REMARK  150  A    between atoms: _353  and  _354
REMARK  151  A    between atoms: _353  and  _356
REMARK  152  A    between atoms: _356  and  _357
REMARK  153  A    between atoms: _362  and  _363
REMARK  154  A    between atoms: _365  and  _367
REMARK  155  A    between atoms: _367  and  _368
REMARK  156  A    between atoms: _367  and  _370
REMARK  157  A    between atoms: _370  and  _371
REMARK  158  A    between atoms: _374  and  _376
REMARK  159  A    between atoms: _376  and  _377
REMARK  160  A    between atoms: _376  and  _379
REMARK  161  A    between atoms: _382  and  _384
REMARK  162  A    between atoms: _384  and  _385
REMARK  163  A    between atoms: _384  and  _387
REMARK  164  A    between atoms: _387  and  _388
REMARK  165  A    between atoms: _388  and  _389
REMARK  166  A    between atoms: _391  and  _393
REMARK  167  A    between atoms: _393  and  _394
REMARK  168  A    between atoms: _393  and  _396
REMARK  169  A    between atoms: _396  and  _397
REMARK  170  A    between atoms: _397  and  _398
REMARK  171  A    between atoms: _401  and  _403
REMARK  172  A    between atoms: _403  and  _404
REMARK  173  A    between atoms: _403  and  _406
REMARK  174  A    between atoms: _406  and  _407
REMARK  175  A    between atoms: _410  and  _412
REMARK  176  A    between atoms: _412  and  _413
REMARK  177  A    between atoms: _412  and  _415
REMARK  178  A    between atoms: _415  and  _416
REMARK  179  A    between atoms: _416  and  _417
REMARK  180  A    between atoms: _419  and  _421
REMARK  181  A    between atoms: _421  and  _422
REMARK  182  A    between atoms: _421  and  _424
REMARK  183  A    between atoms: _424  and  _425
REMARK  184  A    between atoms: _428  and  _430
REMARK  185  A    between atoms: _430  and  _431
REMARK  186  A    between atoms: _434  and  _436
REMARK  187  A    between atoms: _436  and  _437
REMARK  188  A    between atoms: _436  and  _439
REMARK  189  A    between atoms: _439  and  _440
REMARK  190  A    between atoms: _445  and  _447
REMARK  191  A    between atoms: _447  and  _448
REMARK  192  A    between atoms: _447  and  _450
REMARK  193  A    between atoms: _450  and  _451
REMARK  194  A    between atoms: _451  and  _452
REMARK  195  A    between atoms: _457  and  _459
REMARK  196  A    between atoms: _459  and  _460
REMARK  197  A    between atoms: _462  and  _464
REMARK  198  A    between atoms: _464  and  _465
REMARK  199  A    between atoms: _464  and  _467
REMARK  200  A    between atoms: _467  and  _468
REMARK  201  A    between atoms: _471  and  _473
REMARK  202  A    between atoms: _473  and  _474
REMARK  203  A    between atoms: _477  and  _479
REMARK  204  A    between atoms: _479  and  _480
REMARK  205  A    between atoms: _479  and  _482
REMARK  206  A    between atoms: _482  and  _483
REMARK  207  A    between atoms: _486  and  _488
REMARK  208  A    between atoms: _488  and  _489
REMARK  209  A    between atoms: _488  and  _491
REMARK  210  A    between atoms: _491  and  _492
REMARK  211  A    between atoms: _495  and  _497
REMARK  212  A    between atoms: _497  and  _498
REMARK  213  A    between atoms: _497  and  _500
REMARK  214  A    between atoms: _500  and  _501
REMARK  215  A    between atoms: _506  and  _508
REMARK  216  A    between atoms: _508  and  _509
REMARK  217  A    between atoms: _508  and  _511
REMARK  218  A    between atoms: _511  and  _512
REMARK  219  A    between atoms: _512  and  _513
REMARK  220  A    between atoms: _513  and  _514
REMARK  221  A    between atoms: _523  and  _525
REMARK  222  A    between atoms: _525  and  _526
REMARK  223  A    between atoms: _525  and  _528
REMARK  224  A    between atoms: _528  and  _529
REMARK  225  A    between atoms: _532  and  _534
REMARK  226  A    between atoms: _534  and  _535
REMARK  227  A    between atoms: _534  and  _537
REMARK  228  A    between atoms: _537  and  _538
REMARK  229  A    between atoms: _541  and  _543
REMARK  230  A    between atoms: _543  and  _544
REMARK  231  A    between atoms: _543  and  _546
REMARK  232  A    between atoms: _546  and  _547
REMARK  233  A    between atoms: _549  and  _551
REMARK  234  A    between atoms: _551  and  _552
REMARK  235  A    between atoms: _551  and  _554
REMARK  236  A    between atoms: _554  and  _555
REMARK  237  A    between atoms: _560  and  _562
REMARK  238  A    between atoms: _562  and  _563
REMARK  239  A    between atoms: _562  and  _565
REMARK  240  A    between atoms: _565  and  _566
REMARK  241  A    between atoms: _569  and  _571
REMARK  242  A    between atoms: _571  and  _572
REMARK  243  A    between atoms: _571  and  _574
REMARK  244  A    between atoms: _577  and  _579
REMARK  245  A    between atoms: _579  and  _580
REMARK  246  A    between atoms: _579  and  _582
REMARK  247  A    between atoms: _585  and  _587
REMARK  248  A    between atoms: _587  and  _588
REMARK  249  A    between atoms: _587  and  _590
REMARK  250  A    between atoms: _590  and  _591
REMARK  251  A    between atoms: _591  and  _592
REMARK  252  A    between atoms: _592  and  _593
REMARK  253  A    between atoms: _593  and  _594
REMARK  254  A    between atoms: _598  and  _600
REMARK  255  A    between atoms: _600  and  _601
REMARK  256  A    between atoms: _600  and  _603
REMARK  257  A    between atoms: _603  and  _604
REMARK  258  A    between atoms: _604  and  _605
REMARK  259  A    between atoms: _605  and  _606
REMARK  260  A    between atoms: _606  and  _607
REMARK  261  A    between atoms: _611  and  _613
REMARK  262  A    between atoms: _613  and  _614
REMARK  263  A    between atoms: _613  and  _616
REMARK  264  A    between atoms: _616  and  _617
REMARK  265  A    between atoms: _620  and  _622
REMARK  266  A    between atoms: _622  and  _623
REMARK  267  A    between atoms: _622  and  _625
REMARK  268  A    between atoms: _625  and  _626
REMARK  269  A    between atoms: _629  and  _631
REMARK  270  A    between atoms: _631  and  _632
REMARK  271  A    between atoms: _631  and  _634
REMARK  272  A    between atoms: _634  and  _635
REMARK  273  A    between atoms: _638  and  _640
REMARK  274  A    between atoms: _640  and  _641
REMARK  275  A    between atoms: _640  and  _643
REMARK  276  A    between atoms: _643  and  _644
REMARK  277  A    between atoms: _650  and  _652
REMARK  278  A    between atoms: _652  and  _653
REMARK  279  A    between atoms: _655  and  _657
REMARK  280  A    between atoms: _657  and  _658
REMARK  281  A    between atoms: _657  and  _660
REMARK  282  A    between atoms: _660  and  _661
REMARK  283  A    between atoms: _664  and  _666
REMARK  284  A    between atoms: _666  and  _667
REMARK  285  A    between atoms: _670  and  _672
REMARK  286  A    between atoms: _672  and  _673
REMARK  287  A    between atoms: _672  and  _675
REMARK  288  A    between atoms: _675  and  _676
REMARK  289  A    between atoms: _676  and  _677
REMARK  290  A    between atoms: _679  and  _681
REMARK  291  A    between atoms: _681  and  _682
REMARK  292  A    between atoms: _681  and  _684
REMARK  293  A    between atoms: _684  and  _685
REMARK  294  A    between atoms: _685  and  _686
REMARK  295  A    between atoms: _688  and  _690
REMARK  296  A    between atoms: _690  and  _691
REMARK  297  A    between atoms: _690  and  _693
REMARK  298  A    between atoms: _693  and  _694
REMARK  299  A    between atoms: _697  and  _699
REMARK  300  A    between atoms: _699  and  _700
REMARK  301  A    between atoms: _699  and  _702
REMARK  302  A    between atoms: _702  and  _703
REMARK  303  A    between atoms: _706  and  _708
REMARK  304  A    between atoms: _708  and  _709
REMARK  305  A    between atoms: _708  and  _711
REMARK  306  A    between atoms: _711  and  _712
REMARK  307  A    between atoms: _712  and  _713
REMARK                            x       y       z     vdW  Elec       q    Type
REMARK                         _______ _______ _______ _____ _____    ______ ____
ROOT
ATOM      1  O   HOH     1      60.767  34.092  11.994  0.00  0.00    +0.000 OA
ENDROOT
TORSDOF 0
REMARK  Name = ../refined-set-2016/3npc/3npc_pocket.pdb
REMARK  307 active torsions:
REMARK  status: ('A' for Active; 'I' for Inactive)
REMARK    1  A    between atoms: _1  and  _3
REMARK    2  A    between atoms: _3  and  _4
REMARK    3  A    between atoms: _3  and  _6
REMARK    4  A    between atoms: _6  and  _7
REMARK    5  A    between atoms: _10  and  _12
REMARK    6  A    between atoms: _12  and  _13
REMARK    7  A    between atoms: _15  and  _17
REMARK    8  A    between atoms: _17  and  _18
REMARK    9  A    between atoms: _17  and  _20
REMARK   10  A    between atoms: _20  and  _21
REMARK   11  A    between atoms: _21  and  _22
REMARK   12  A    between atoms: _27  and  _29
REMARK   13  A    between atoms: _29  and  _30
REMARK   14  A    between atoms: _29  and  _32
REMARK   15  A    between atoms: _32  and  _33
REMARK   16  A    between atoms: _36  and  _38
REMARK   17  A    between atoms: _38  and  _39
REMARK   18  A    between atoms: _38  and  _41
REMARK   19  A    between atoms: _44  and  _46
REMARK   20  A    between atoms: _46  and  _47
REMARK   21  A    between atoms: _46  and  _49
REMARK   22  A    between atoms: _51  and  _53
REMARK   23  A    between atoms: _53  and  _54
REMARK   24  A    between atoms: _57  and  _59
REMARK   25  A    between atoms: _59  and  _60
REMARK   26  A    between atoms: _59  and  _62
REMARK   27  A    between atoms: _62  and  _63
REMARK   28  A    between atoms: _68  and  _70
REMARK   29  A    between atoms: _70  and  _71
REMARK   30  A    between atoms: _70  and  _73
REMARK   31  A    between atoms: _76  and  _78
REMARK   32  A    between atoms: _78  and  _79
REMARK   33  A    between atoms: _82  and  _84
REMARK   34  A    between atoms: _84  and  _85
REMARK   35  A    between atoms: _84  and  _87
REMARK   36  A    between atoms: _90  and  _92
REMARK   37  A    between atoms: _92  and  _93
REMARK   38  A    between atoms: _92  and  _95
REMARK   39  A    between atoms: _95  and  _96
REMARK   40  A    between atoms: _96  and  _97
REMARK   41  A    between atoms: _97  and  _98
REMARK   42  A    between atoms: _98  and  _99
REMARK   43  A    between atoms: _103  and  _105
REMARK   44  A    between atoms: _105  and  _106
REMARK   45  A    between atoms: _105  and  _108
REMARK   46  A    between atoms: _108  and  _109
REMARK   47  A    between atoms: _109  and  _110
REMARK   48  A    between atoms: _110  and  _111
REMARK   49  A    between atoms: _111  and  _112
REMARK   50  A    between atoms: _116  and  _118
REMARK   51  A    between atoms: _118  and  _119
REMARK   52  A    between atoms: _118  and  _121
REMARK   53  A    between atoms: _121  and  _122
REMARK   54  A    between atoms: _125  and  _127
REMARK   55  A    between atoms: _127  and  _128
REMARK   56  A    between atoms: _127  and  _130
REMARK   57  A    between atoms: _130  and  _131
REMARK   58  A    between atoms: _134  and  _136
REMARK   59  A    between atoms: _136  and  _137
REMARK   60  A    between atoms: _136  and  _139
REMARK   61  A    between atoms: _139  and  _140
REMARK   62  A    between atoms: _145  and  _147
REMARK   63  A    between atoms: _147  and  _148
REMARK   64  A    between atoms: _147  and  _150
REMARK   65  A    between atoms: _150  and  _151
REMARK   66  A    between atoms: _151  and  _152
REMARK   67  A    between atoms: _152  and  _153
REMARK   68  A    between atoms: _153  and  _154
REMARK   69  A    between atoms: _158  and  _160
REMARK   70  A    between atoms: _160  and  _161
REMARK   71  A    between atoms: _160  and  _163
REMARK   72  A    between atoms: _163  and  _164
REMARK   73  A    between atoms: _164  and  _165
REMARK   74  A    between atoms: _165  and  _166
REMARK   75  A    between atoms: _175  and  _177
REMARK   76  A    between atoms: _177  and  _178
REMARK   77  A    between atoms: _181  and  _183
REMARK   78  A    between atoms: _183  and  _184
REMARK   79  A    between atoms: _183  and  _186
REMARK   80  A    between atoms: _186  and  _187
REMARK   81  A    between atoms: _192  and  _193
REMARK   82  A    between atoms: _195  and  _197
REMARK   83  A    between atoms: _197  and  _198
REMARK   84  A    between atoms: _197  and  _200
REMARK   85  A    between atoms: _200  and  _201
REMARK   86  A    between atoms: _201  and  _202
REMARK   87  A    between atoms: _202  and  _203
REMARK   88  A    between atoms: _212  and  _214
REMARK   89  A    between atoms: _214  and  _215
REMARK   90  A    between atoms: _214  and  _217
REMARK   91  A    between atoms: _217  and  _218
REMARK   92  A    between atoms: _218  and  _219
REMARK   93  A    between atoms: _222  and  _224
REMARK   94  A    between atoms: _224  and  _225
REMARK   95  A    between atoms: _224  and  _227
REMARK   96  A    between atoms: _227  and  _228
REMARK   97  A    between atoms: _231  and  _233
REMARK   98  A    between atoms: _233  and  _234
REMARK   99  A    between atoms: _233  and  _236
REMARK  100  A    between atoms: _239  and  _241
REMARK  101  A    between atoms: _241  and  _242
REMARK  102  A    between atoms: _241  and  _244
REMARK  103  A    between atoms: _244  and  _245
REMARK  104  A    between atoms: _248  and  _250
REMARK  105  A    between atoms: _250  and  _251
REMARK  106  A    between atoms: _250  and  _253
REMARK  107  A    between atoms: _253  and  _254
REMARK  108  A    between atoms: _257  and  _259
REMARK  109  A    between atoms: _259  and  _260
REMARK  110  A    between atoms: _259  and  _262
REMARK  111  A    between atoms: _262  and  _263
REMARK  112  A    between atoms: _263  and  _264
REMARK  113  A    between atoms: _264  and  _265
REMARK  114  A    between atoms: _265  and  _266
REMARK  115  A    between atoms: _270  and  _272
REMARK  116  A    between atoms: _272  and  _273
REMARK  117  A    between atoms: _272  and  _275
REMARK  118  A    between atoms: _277  and  _279
REMARK  119  A    between atoms: _279  and  _280
REMARK  120  A    between atoms: _279  and  _282
REMARK  121  A    between atoms: _285  and  _287
REMARK  122  A    between atoms: _287  and  _288
REMARK  123  A    between atoms: _287  and  _290
REMARK  124  A    between atoms: _290  and  _291
REMARK  125  A    between atoms: _296  and  _298
REMARK  126  A    between atoms: _298  and  _299
REMARK  127  A    between atoms: _298  and  _301
REMARK  128  A    between atoms: _301  and  _302
REMARK  129  A    between atoms: _305  and  _307
REMARK  130  A    between atoms: _307  and  _308
REMARK  131  A    between atoms: _307  and  _310
REMARK  132  A    between atoms: _310  and  _311
REMARK  133  A    between atoms: _314  and  _316
REMARK  134  A    between atoms: _316  and  _317
REMARK  135  A    between atoms: _316  and  _319
REMARK  136  A    between atoms: _319  and  _320
REMARK  137  A    between atoms: _322  and  _324
REMARK  138  A    between atoms: _324  and  _325
REMARK  139  A    between atoms: _324  and  _327
REMARK  140  A    between atoms: _327  and  _328
REMARK  141  A    between atoms: _331  and  _333
REMARK  142  A    between atoms: _333  and  _334
REMARK  143  A    between atoms: _333  and  _336
REMARK  144  A    between atoms: _336  and  _337
REMARK  145  A    between atoms: _340  and  _342
REMARK  146  A    between atoms: _342  and  _343
REMARK  147  A    between atoms: _342  and  _345
REMARK  148  A    between atoms: _345  and  _346
REMARK  149  A    between atoms: _351  and  _353
REMARK  150  A    between atoms: _353  and  _354
REMARK  151  A    between atoms: _353  and  _356
REMARK  152  A    between atoms: _356  and  _357
REMARK  153  A    between atoms: _362  and  _363
REMARK  154  A    between atoms: _365  and  _367
REMARK  155  A    between atoms: _367  and  _368
REMARK  156  A    between atoms: _367  and  _370
REMARK  157  A    between atoms: _370  and  _371
REMARK  158  A    between atoms: _374  and  _376
REMARK  159  A    between atoms: _376  and  _377
REMARK  160  A    between atoms: _376  and  _379
REMARK  161  A    between atoms: _382  and  _384
REMARK  162  A    between atoms: _384  and  _385
REMARK  163  A    between atoms: _384  and  _387
REMARK  164  A    between atoms: _387  and  _388
REMARK  165  A    between atoms: _388  and  _389
REMARK  166  A    between atoms: _391  and  _393
REMARK  167  A    between atoms: _393  and  _394
REMARK  168  A    between atoms: _393  and  _396
REMARK  169  A    between atoms: _396  and  _397
REMARK  170  A    between atoms: _397  and  _398
REMARK  171  A    between atoms: _401  and  _403
REMARK  172  A    between atoms: _403  and  _404
REMARK  173  A    between atoms: _403  and  _406
REMARK  174  A    between atoms: _406  and  _407
REMARK  175  A    between atoms: _410  and  _412
REMARK  176  A    between atoms: _412  and  _413
REMARK  177  A    between atoms: _412  and  _415
REMARK  178  A    between atoms: _415  and  _416
REMARK  179  A    between atoms: _416  and  _417
REMARK  180  A    between atoms: _419  and  _421
REMARK  181  A    between atoms: _421  and  _422
REMARK  182  A    between atoms: _421  and  _424
REMARK  183  A    between atoms: _424  and  _425
REMARK  184  A    between atoms: _428  and  _430
REMARK  185  A    between atoms: _430  and  _431
REMARK  186  A    between atoms: _434  and  _436
REMARK  187  A    between atoms: _436  and  _437
REMARK  188  A    between atoms: _436  and  _439
REMARK  189  A    between atoms: _439  and  _440
REMARK  190  A    between atoms: _445  and  _447
REMARK  191  A    between atoms: _447  and  _448
REMARK  192  A    between atoms: _447  and  _450
REMARK  193  A    between atoms: _450  and  _451
REMARK  194  A    between atoms: _451  and  _452
REMARK  195  A    between atoms: _457  and  _459
REMARK  196  A    between atoms: _459  and  _460
REMARK  197  A    between atoms: _462  and  _464
REMARK  198  A    between atoms: _464  and  _465
REMARK  199  A    between atoms: _464  and  _467
REMARK  200  A    between atoms: _467  and  _468
REMARK  201  A    between atoms: _471  and  _473
REMARK  202  A    between atoms: _473  and  _474
REMARK  203  A    between atoms: _477  and  _479
REMARK  204  A    between atoms: _479  and  _480
REMARK  205  A    between atoms: _479  and  _482
REMARK  206  A    between atoms: _482  and  _483
REMARK  207  A    between atoms: _486  and  _488
REMARK  208  A    between atoms: _488  and  _489
REMARK  209  A    between atoms: _488  and  _491
REMARK  210  A    between atoms: _491  and  _492
REMARK  211  A    between atoms: _495  and  _497
REMARK  212  A    between atoms: _497  and  _498
REMARK  213  A    between atoms: _497  and  _500
REMARK  214  A    between atoms: _500  and  _501
REMARK  215  A    between atoms: _506  and  _508
REMARK  216  A    between atoms: _508  and  _509
REMARK  217  A    between atoms: _508  and  _511
REMARK  218  A    between atoms: _511  and  _512
REMARK  219  A    between atoms: _512  and  _513
REMARK  220  A    between atoms: _513  and  _514
REMARK  221  A    between atoms: _523  and  _525
REMARK  222  A    between atoms: _525  and  _526
REMARK  223  A    between atoms: _525  and  _528
REMARK  224  A    between atoms: _528  and  _529
REMARK  225  A    between atoms: _532  and  _534
REMARK  226  A    between atoms: _534  and  _535
REMARK  227  A    between atoms: _534  and  _537
REMARK  228  A    between atoms: _537  and  _538
REMARK  229  A    between atoms: _541  and  _543
REMARK  230  A    between atoms: _543  and  _544
REMARK  231  A    between atoms: _543  and  _546
REMARK  232  A    between atoms: _546  and  _547
REMARK  233  A    between atoms: _549  and  _551
REMARK  234  A    between atoms: _551  and  _552
REMARK  235  A    between atoms: _551  and  _554
REMARK  236  A    between atoms: _554  and  _555
REMARK  237  A    between atoms: _560  and  _562
REMARK  238  A    between atoms: _562  and  _563
REMARK  239  A    between atoms: _562  and  _565
REMARK  240  A    between atoms: _565  and  _566
REMARK  241  A    between atoms: _569  and  _571
REMARK  242  A    between atoms: _571  and  _572
REMARK  243  A    between atoms: _571  and  _574
REMARK  244  A    between atoms: _577  and  _579
REMARK  245  A    between atoms: _579  and  _580
REMARK  246  A    between atoms: _579  and  _582
REMARK  247  A    between atoms: _585  and  _587
REMARK  248  A    between atoms: _587  and  _588
REMARK  249  A    between atoms: _587  and  _590
REMARK  250  A    between atoms: _590  and  _591
REMARK  251  A    between atoms: _591  and  _592
REMARK  252  A    between atoms: _592  and  _593
REMARK  253  A    between atoms: _593  and  _594
REMARK  254  A    between atoms: _598  and  _600
REMARK  255  A    between atoms: _600  and  _601
REMARK  256  A    between atoms: _600  and  _603
REMARK  257  A    between atoms: _603  and  _604
REMARK  258  A    between atoms: _604  and  _605
REMARK  259  A    between atoms: _605  and  _606
REMARK  260  A    between atoms: _606  and  _607
REMARK  261  A    between atoms: _611  and  _613
REMARK  262  A    between atoms: _613  and  _614
REMARK  263  A    between atoms: _613  and  _616
REMARK  264  A    between atoms: _616  and  _617
REMARK  265  A    between atoms: _620  and  _622
REMARK  266  A    between atoms: _622  and  _623
REMARK  267  A    between atoms: _622  and  _625
REMARK  268  A    between atoms: _625  and  _626
REMARK  269  A    between atoms: _629  and  _631
REMARK  270  A    between atoms: _631  and  _632
REMARK  271  A    between atoms: _631  and  _634
REMARK  272  A    between atoms: _634  and  _635
REMARK  273  A    between atoms: _638  and  _640
REMARK  274  A    between atoms: _640  and  _641
REMARK  275  A    between atoms: _640  and  _643
REMARK  276  A    between atoms: _643  and  _644
REMARK  277  A    between atoms: _650  and  _652
REMARK  278  A    between atoms: _652  and  _653
REMARK  279  A    between atoms: _655  and  _657
REMARK  280  A    between atoms: _657  and  _658
REMARK  281  A    between atoms: _657  and  _660
REMARK  282  A    between atoms: _660  and  _661
REMARK  283  A    between atoms: _664  and  _666
REMARK  284  A    between atoms: _666  and  _667
REMARK  285  A    between atoms: _670  and  _672
REMARK  286  A    between atoms: _672  and  _673
REMARK  287  A    between atoms: _672  and  _675
REMARK  288  A    between atoms: _675  and  _676
REMARK  289  A    between atoms: _676  and  _677
REMARK  290  A    between atoms: _679  and  _681
REMARK  291  A    between atoms: _681  and  _682
REMARK  292  A    between atoms: _681  and  _684
REMARK  293  A    between atoms: _684  and  _685
REMARK  294  A    between atoms: _685  and  _686
REMARK  295  A    between atoms: _688  and  _690
REMARK  296  A    between atoms: _690  and  _691
REMARK  297  A    between atoms: _690  and  _693
REMARK  298  A    between atoms: _693  and  _694
REMARK  299  A    between atoms: _697  and  _699
REMARK  300  A    between atoms: _699  and  _700
REMARK  301  A    between atoms: _699  and  _702
REMARK  302  A    between atoms: _702  and  _703
REMARK  303  A    between atoms: _706  and  _708
REMARK  304  A    between atoms: _708  and  _709
REMARK  305  A    between atoms: _708  and  _711
REMARK  306  A    between atoms: _711  and  _712
REMARK  307  A    between atoms: _712  and  _713
REMARK                            x       y       z     vdW  Elec       q    Type
REMARK                         _______ _______ _______ _____ _____    ______ ____
ROOT
ATOM      1  O   HOH     1      47.358  45.422  15.054  0.00  0.00    +0.000 OA
ENDROOT
TORSDOF 0
REMARK  Name = ../refined-set-2016/3npc/3npc_pocket.pdb
REMARK  307 active torsions:
REMARK  status: ('A' for Active; 'I' for Inactive)
REMARK    1  A    between atoms: _1  and  _3
REMARK    2  A    between atoms: _3  and  _4
REMARK    3  A    between atoms: _3  and  _6
REMARK    4  A    between atoms: _6  and  _7
REMARK    5  A    between atoms: _10  and  _12
REMARK    6  A    between atoms: _12  and  _13
REMARK    7  A    between atoms: _15  and  _17
REMARK    8  A    between atoms: _17  and  _18
REMARK    9  A    between atoms: _17  and  _20
REMARK   10  A    between atoms: _20  and  _21
REMARK   11  A    between atoms: _21  and  _22
REMARK   12  A    between atoms: _27  and  _29
REMARK   13  A    between atoms: _29  and  _30
REMARK   14  A    between atoms: _29  and  _32
REMARK   15  A    between atoms: _32  and  _33
REMARK   16  A    between atoms: _36  and  _38
REMARK   17  A    between atoms: _38  and  _39
REMARK   18  A    between atoms: _38  and  _41
REMARK   19  A    between atoms: _44  and  _46
REMARK   20  A    between atoms: _46  and  _47
REMARK   21  A    between atoms: _46  and  _49
REMARK   22  A    between atoms: _51  and  _53
REMARK   23  A    between atoms: _53  and  _54
REMARK   24  A    between atoms: _57  and  _59
REMARK   25  A    between atoms: _59  and  _60
REMARK   26  A    between atoms: _59  and  _62
REMARK   27  A    between atoms: _62  and  _63
REMARK   28  A    between atoms: _68  and  _70
REMARK   29  A    between atoms: _70  and  _71
REMARK   30  A    between atoms: _70  and  _73
REMARK   31  A    between atoms: _76  and  _78
REMARK   32  A    between atoms: _78  and  _79
REMARK   33  A    between atoms: _82  and  _84
REMARK   34  A    between atoms: _84  and  _85
REMARK   35  A    between atoms: _84  and  _87
REMARK   36  A    between atoms: _90  and  _92
REMARK   37  A    between atoms: _92  and  _93
REMARK   38  A    between atoms: _92  and  _95
REMARK   39  A    between atoms: _95  and  _96
REMARK   40  A    between atoms: _96  and  _97
REMARK   41  A    between atoms: _97  and  _98
REMARK   42  A    between atoms: _98  and  _99
REMARK   43  A    between atoms: _103  and  _105
REMARK   44  A    between atoms: _105  and  _106
REMARK   45  A    between atoms: _105  and  _108
REMARK   46  A    between atoms: _108  and  _109
REMARK   47  A    between atoms: _109  and  _110
REMARK   48  A    between atoms: _110  and  _111
REMARK   49  A    between atoms: _111  and  _112
REMARK   50  A    between atoms: _116  and  _118
REMARK   51  A    between atoms: _118  and  _119
REMARK   52  A    between atoms: _118  and  _121
REMARK   53  A    between atoms: _121  and  _122
REMARK   54  A    between atoms: _125  and  _127
REMARK   55  A    between atoms: _127  and  _128
REMARK   56  A    between atoms: _127  and  _130
REMARK   57  A    between atoms: _130  and  _131
REMARK   58  A    between atoms: _134  and  _136
REMARK   59  A    between atoms: _136  and  _137
REMARK   60  A    between atoms: _136  and  _139
REMARK   61  A    between atoms: _139  and  _140
REMARK   62  A    between atoms: _145  and  _147
REMARK   63  A    between atoms: _147  and  _148
REMARK   64  A    between atoms: _147  and  _150
REMARK   65  A    between atoms: _150  and  _151
REMARK   66  A    between atoms: _151  and  _152
REMARK   67  A    between atoms: _152  and  _153
REMARK   68  A    between atoms: _153  and  _154
REMARK   69  A    between atoms: _158  and  _160
REMARK   70  A    between atoms: _160  and  _161
REMARK   71  A    between atoms: _160  and  _163
REMARK   72  A    between atoms: _163  and  _164
REMARK   73  A    between atoms: _164  and  _165
REMARK   74  A    between atoms: _165  and  _166
REMARK   75  A    between atoms: _175  and  _177
REMARK   76  A    between atoms: _177  and  _178
REMARK   77  A    between atoms: _181  and  _183
REMARK   78  A    between atoms: _183  and  _184
REMARK   79  A    between atoms: _183  and  _186
REMARK   80  A    between atoms: _186  and  _187
REMARK   81  A    between atoms: _192  and  _193
REMARK   82  A    between atoms: _195  and  _197
REMARK   83  A    between atoms: _197  and  _198
REMARK   84  A    between atoms: _197  and  _200
REMARK   85  A    between atoms: _200  and  _201
REMARK   86  A    between atoms: _201  and  _202
REMARK   87  A    between atoms: _202  and  _203
REMARK   88  A    between atoms: _212  and  _214
REMARK   89  A    between atoms: _214  and  _215
REMARK   90  A    between atoms: _214  and  _217
REMARK   91  A    between atoms: _217  and  _218
REMARK   92  A    between atoms: _218  and  _219
REMARK   93  A    between atoms: _222  and  _224
REMARK   94  A    between atoms: _224  and  _225
REMARK   95  A    between atoms: _224  and  _227
REMARK   96  A    between atoms: _227  and  _228
REMARK   97  A    between atoms: _231  and  _233
REMARK   98  A    between atoms: _233  and  _234
REMARK   99  A    between atoms: _233  and  _236
REMARK  100  A    between atoms: _239  and  _241
REMARK  101  A    between atoms: _241  and  _242
REMARK  102  A    between atoms: _241  and  _244
REMARK  103  A    between atoms: _244  and  _245
REMARK  104  A    between atoms: _248  and  _250
REMARK  105  A    between atoms: _250  and  _251
REMARK  106  A    between atoms: _250  and  _253
REMARK  107  A    between atoms: _253  and  _254
REMARK  108  A    between atoms: _257  and  _259
REMARK  109  A    between atoms: _259  and  _260
REMARK  110  A    between atoms: _259  and  _262
REMARK  111  A    between atoms: _262  and  _263
REMARK  112  A    between atoms: _263  and  _264
REMARK  113  A    between atoms: _264  and  _265
REMARK  114  A    between atoms: _265  and  _266
REMARK  115  A    between atoms: _270  and  _272
REMARK  116  A    between atoms: _272  and  _273
REMARK  117  A    between atoms: _272  and  _275
REMARK  118  A    between atoms: _277  and  _279
REMARK  119  A    between atoms: _279  and  _280
REMARK  120  A    between atoms: _279  and  _282
REMARK  121  A    between atoms: _285  and  _287
REMARK  122  A    between atoms: _287  and  _288
REMARK  123  A    between atoms: _287  and  _290
REMARK  124  A    between atoms: _290  and  _291
REMARK  125  A    between atoms: _296  and  _298
REMARK  126  A    between atoms: _298  and  _299
REMARK  127  A    between atoms: _298  and  _301
REMARK  128  A    between atoms: _301  and  _302
REMARK  129  A    between atoms: _305  and  _307
REMARK  130  A    between atoms: _307  and  _308
REMARK  131  A    between atoms: _307  and  _310
REMARK  132  A    between atoms: _310  and  _311
REMARK  133  A    between atoms: _314  and  _316
REMARK  134  A    between atoms: _316  and  _317
REMARK  135  A    between atoms: _316  and  _319
REMARK  136  A    between atoms: _319  and  _320
REMARK  137  A    between atoms: _322  and  _324
REMARK  138  A    between atoms: _324  and  _325
REMARK  139  A    between atoms: _324  and  _327
REMARK  140  A    between atoms: _327  and  _328
REMARK  141  A    between atoms: _331  and  _333
REMARK  142  A    between atoms: _333  and  _334
REMARK  143  A    between atoms: _333  and  _336
REMARK  144  A    between atoms: _336  and  _337
REMARK  145  A    between atoms: _340  and  _342
REMARK  146  A    between atoms: _342  and  _343
REMARK  147  A    between atoms: _342  and  _345
REMARK  148  A    between atoms: _345  and  _346
REMARK  149  A    between atoms: _351  and  _353
REMARK  150  A    between atoms: _353  and  _354
REMARK  151  A    between atoms: _353  and  _356
REMARK  152  A    between atoms: _356  and  _357
REMARK  153  A    between atoms: _362  and  _363
REMARK  154  A    between atoms: _365  and  _367
REMARK  155  A    between atoms: _367  and  _368
REMARK  156  A    between atoms: _367  and  _370
REMARK  157  A    between atoms: _370  and  _371
REMARK  158  A    between atoms: _374  and  _376
REMARK  159  A    between atoms: _376  and  _377
REMARK  160  A    between atoms: _376  and  _379
REMARK  161  A    between atoms: _382  and  _384
REMARK  162  A    between atoms: _384  and  _385
REMARK  163  A    between atoms: _384  and  _387
REMARK  164  A    between atoms: _387  and  _388
REMARK  165  A    between atoms: _388  and  _389
REMARK  166  A    between atoms: _391  and  _393
REMARK  167  A    between atoms: _393  and  _394
REMARK  168  A    between atoms: _393  and  _396
REMARK  169  A    between atoms: _396  and  _397
REMARK  170  A    between atoms: _397  and  _398
REMARK  171  A    between atoms: _401  and  _403
REMARK  172  A    between atoms: _403  and  _404
REMARK  173  A    between atoms: _403  and  _406
REMARK  174  A    between atoms: _406  and  _407
REMARK  175  A    between atoms: _410  and  _412
REMARK  176  A    between atoms: _412  and  _413
REMARK  177  A    between atoms: _412  and  _415
REMARK  178  A    between atoms: _415  and  _416
REMARK  179  A    between atoms: _416  and  _417
REMARK  180  A    between atoms: _419  and  _421
REMARK  181  A    between atoms: _421  and  _422
REMARK  182  A    between atoms: _421  and  _424
REMARK  183  A    between atoms: _424  and  _425
REMARK  184  A    between atoms: _428  and  _430
REMARK  185  A    between atoms: _430  and  _431
REMARK  186  A    between atoms: _434  and  _436
REMARK  187  A    between atoms: _436  and  _437
REMARK  188  A    between atoms: _436  and  _439
REMARK  189  A    between atoms: _439  and  _440
REMARK  190  A    between atoms: _445  and  _447
REMARK  191  A    between atoms: _447  and  _448
REMARK  192  A    between atoms: _447  and  _450
REMARK  193  A    between atoms: _450  and  _451
REMARK  194  A    between atoms: _451  and  _452
REMARK  195  A    between atoms: _457  and  _459
REMARK  196  A    between atoms: _459  and  _460
REMARK  197  A    between atoms: _462  and  _464
REMARK  198  A    between atoms: _464  and  _465
REMARK  199  A    between atoms: _464  and  _467
REMARK  200  A    between atoms: _467  and  _468
REMARK  201  A    between atoms: _471  and  _473
REMARK  202  A    between atoms: _473  and  _474
REMARK  203  A    between atoms: _477  and  _479
REMARK  204  A    between atoms: _479  and  _480
REMARK  205  A    between atoms: _479  and  _482
REMARK  206  A    between atoms: _482  and  _483
REMARK  207  A    between atoms: _486  and  _488
REMARK  208  A    between atoms: _488  and  _489
REMARK  209  A    between atoms: _488  and  _491
REMARK  210  A    between atoms: _491  and  _492
REMARK  211  A    between atoms: _495  and  _497
REMARK  212  A    between atoms: _497  and  _498
REMARK  213  A    between atoms: _497  and  _500
REMARK  214  A    between atoms: _500  and  _501
REMARK  215  A    between atoms: _506  and  _508
REMARK  216  A    between atoms: _508  and  _509
REMARK  217  A    between atoms: _508  and  _511
REMARK  218  A    between atoms: _511  and  _512
REMARK  219  A    between atoms: _512  and  _513
REMARK  220  A    between atoms: _513  and  _514
REMARK  221  A    between atoms: _523  and  _525
REMARK  222  A    between atoms: _525  and  _526
REMARK  223  A    between atoms: _525  and  _528
REMARK  224  A    between atoms: _528  and  _529
REMARK  225  A    between atoms: _532  and  _534
REMARK  226  A    between atoms: _534  and  _535
REMARK  227  A    between atoms: _534  and  _537
REMARK  228  A    between atoms: _537  and  _538
REMARK  229  A    between atoms: _541  and  _543
REMARK  230  A    between atoms: _543  and  _544
REMARK  231  A    between atoms: _543  and  _546
REMARK  232  A    between atoms: _546  and  _547
REMARK  233  A    between atoms: _549  and  _551
REMARK  234  A    between atoms: _551  and  _552
REMARK  235  A    between atoms: _551  and  _554
REMARK  236  A    between atoms: _554  and  _555
REMARK  237  A    between atoms: _560  and  _562
REMARK  238  A    between atoms: _562  and  _563
REMARK  239  A    between atoms: _562  and  _565
REMARK  240  A    between atoms: _565  and  _566
REMARK  241  A    between atoms: _569  and  _571
REMARK  242  A    between atoms: _571  and  _572
REMARK  243  A    between atoms: _571  and  _574
REMARK  244  A    between atoms: _577  and  _579
REMARK  245  A    between atoms: _579  and  _580
REMARK  246  A    between atoms: _579  and  _582
REMARK  247  A    between atoms: _585  and  _587
REMARK  248  A    between atoms: _587  and  _588
REMARK  249  A    between atoms: _587  and  _590
REMARK  250  A    between atoms: _590  and  _591
REMARK  251  A    between atoms: _591  and  _592
REMARK  252  A    between atoms: _592  and  _593
REMARK  253  A    between atoms: _593  and  _594
REMARK  254  A    between atoms: _598  and  _600
REMARK  255  A    between atoms: _600  and  _601
REMARK  256  A    between atoms: _600  and  _603
REMARK  257  A    between atoms: _603  and  _604
REMARK  258  A    between atoms: _604  and  _605
REMARK  259  A    between atoms: _605  and  _606
REMARK  260  A    between atoms: _606  and  _607
REMARK  261  A    between atoms: _611  and  _613
REMARK  262  A    between atoms: _613  and  _614
REMARK  263  A    between atoms: _613  and  _616
REMARK  264  A    between atoms: _616  and  _617
REMARK  265  A    between atoms: _620  and  _622
REMARK  266  A    between atoms: _622  and  _623
REMARK  267  A    between atoms: _622  and  _625
REMARK  268  A    between atoms: _625  and  _626
REMARK  269  A    between atoms: _629  and  _631
REMARK  270  A    between atoms: _631  and  _632
REMARK  271  A    between atoms: _631  and  _634
REMARK  272  A    between atoms: _634  and  _635
REMARK  273  A    between atoms: _638  and  _640
REMARK  274  A    between atoms: _640  and  _641
REMARK  275  A    between atoms: _640  and  _643
REMARK  276  A    between atoms: _643  and  _644
REMARK  277  A    between atoms: _650  and  _652
REMARK  278  A    between atoms: _652  and  _653
REMARK  279  A    between atoms: _655  and  _657
REMARK  280  A    between atoms: _657  and  _658
REMARK  281  A    between atoms: _657  and  _660
REMARK  282  A    between atoms: _660  and  _661
REMARK  283  A    between atoms: _664  and  _666
REMARK  284  A    between atoms: _666  and  _667
REMARK  285  A    between atoms: _670  and  _672
REMARK  286  A    between atoms: _672  and  _673
REMARK  287  A    between atoms: _672  and  _675
REMARK  288  A    between atoms: _675  and  _676
REMARK  289  A    between atoms: _676  and  _677
REMARK  290  A    between atoms: _679  and  _681
REMARK  291  A    between atoms: _681  and  _682
REMARK  292  A    between atoms: _681  and  _684
REMARK  293  A    between atoms: _684  and  _685
REMARK  294  A    between atoms: _685  and  _686
REMARK  295  A    between atoms: _688  and  _690
REMARK  296  A    between atoms: _690  and  _691
REMARK  297  A    between atoms: _690  and  _693
REMARK  298  A    between atoms: _693  and  _694
REMARK  299  A    between atoms: _697  and  _699
REMARK  300  A    between atoms: _699  and  _700
REMARK  301  A    between atoms: _699  and  _702
REMARK  302  A    between atoms: _702  and  _703
REMARK  303  A    between atoms: _706  and  _708
REMARK  304  A    between atoms: _708  and  _709
REMARK  305  A    between atoms: _708  and  _711
REMARK  306  A    between atoms: _711  and  _712
REMARK  307  A    between atoms: _712  and  _713
REMARK                            x       y       z     vdW  Elec       q    Type
REMARK                         _______ _______ _______ _____ _____    ______ ____
ROOT
ATOM      1  O   HOH     1      52.694  39.369  16.282  0.00  0.00    +0.000 OA
ENDROOT
TORSDOF 0
REMARK  Name = ../refined-set-2016/3npc/3npc_pocket.pdb
REMARK  307 active torsions:
REMARK  status: ('A' for Active; 'I' for Inactive)
REMARK    1  A    between atoms: _1  and  _3
REMARK    2  A    between atoms: _3  and  _4
REMARK    3  A    between atoms: _3  and  _6
REMARK    4  A    between atoms: _6  and  _7
REMARK    5  A    between atoms: _10  and  _12
REMARK    6  A    between atoms: _12  and  _13
REMARK    7  A    between atoms: _15  and  _17
REMARK    8  A    between atoms: _17  and  _18
REMARK    9  A    between atoms: _17  and  _20
REMARK   10  A    between atoms: _20  and  _21
REMARK   11  A    between atoms: _21  and  _22
REMARK   12  A    between atoms: _27  and  _29
REMARK   13  A    between atoms: _29  and  _30
REMARK   14  A    between atoms: _29  and  _32
REMARK   15  A    between atoms: _32  and  _33
REMARK   16  A    between atoms: _36  and  _38
REMARK   17  A    between atoms: _38  and  _39
REMARK   18  A    between atoms: _38  and  _41
REMARK   19  A    between atoms: _44  and  _46
REMARK   20  A    between atoms: _46  and  _47
REMARK   21  A    between atoms: _46  and  _49
REMARK   22  A    between atoms: _51  and  _53
REMARK   23  A    between atoms: _53  and  _54
REMARK   24  A    between atoms: _57  and  _59
REMARK   25  A    between atoms: _59  and  _60
REMARK   26  A    between atoms: _59  and  _62
REMARK   27  A    between atoms: _62  and  _63
REMARK   28  A    between atoms: _68  and  _70
REMARK   29  A    between atoms: _70  and  _71
REMARK   30  A    between atoms: _70  and  _73
REMARK   31  A    between atoms: _76  and  _78
REMARK   32  A    between atoms: _78  and  _79
REMARK   33  A    between atoms: _82  and  _84
REMARK   34  A    between atoms: _84  and  _85
REMARK   35  A    between atoms: _84  and  _87
REMARK   36  A    between atoms: _90  and  _92
REMARK   37  A    between atoms: _92  and  _93
REMARK   38  A    between atoms: _92  and  _95
REMARK   39  A    between atoms: _95  and  _96
REMARK   40  A    between atoms: _96  and  _97
REMARK   41  A    between atoms: _97  and  _98
REMARK   42  A    between atoms: _98  and  _99
REMARK   43  A    between atoms: _103  and  _105
REMARK   44  A    between atoms: _105  and  _106
REMARK   45  A    between atoms: _105  and  _108
REMARK   46  A    between atoms: _108  and  _109
REMARK   47  A    between atoms: _109  and  _110
REMARK   48  A    between atoms: _110  and  _111
REMARK   49  A    between atoms: _111  and  _112
REMARK   50  A    between atoms: _116  and  _118
REMARK   51  A    between atoms: _118  and  _119
REMARK   52  A    between atoms: _118  and  _121
REMARK   53  A    between atoms: _121  and  _122
REMARK   54  A    between atoms: _125  and  _127
REMARK   55  A    between atoms: _127  and  _128
REMARK   56  A    between atoms: _127  and  _130
REMARK   57  A    between atoms: _130  and  _131
REMARK   58  A    between atoms: _134  and  _136
REMARK   59  A    between atoms: _136  and  _137
REMARK   60  A    between atoms: _136  and  _139
REMARK   61  A    between atoms: _139  and  _140
REMARK   62  A    between atoms: _145  and  _147
REMARK   63  A    between atoms: _147  and  _148
REMARK   64  A    between atoms: _147  and  _150
REMARK   65  A    between atoms: _150  and  _151
REMARK   66  A    between atoms: _151  and  _152
REMARK   67  A    between atoms: _152  and  _153
REMARK   68  A    between atoms: _153  and  _154
REMARK   69  A    between atoms: _158  and  _160
REMARK   70  A    between atoms: _160  and  _161
REMARK   71  A    between atoms: _160  and  _163
REMARK   72  A    between atoms: _163  and  _164
REMARK   73  A    between atoms: _164  and  _165
REMARK   74  A    between atoms: _165  and  _166
REMARK   75  A    between atoms: _175  and  _177
REMARK   76  A    between atoms: _177  and  _178
REMARK   77  A    between atoms: _181  and  _183
REMARK   78  A    between atoms: _183  and  _184
REMARK   79  A    between atoms: _183  and  _186
REMARK   80  A    between atoms: _186  and  _187
REMARK   81  A    between atoms: _192  and  _193
REMARK   82  A    between atoms: _195  and  _197
REMARK   83  A    between atoms: _197  and  _198
REMARK   84  A    between atoms: _197  and  _200
REMARK   85  A    between atoms: _200  and  _201
REMARK   86  A    between atoms: _201  and  _202
REMARK   87  A    between atoms: _202  and  _203
REMARK   88  A    between atoms: _212  and  _214
REMARK   89  A    between atoms: _214  and  _215
REMARK   90  A    between atoms: _214  and  _217
REMARK   91  A    between atoms: _217  and  _218
REMARK   92  A    between atoms: _218  and  _219
REMARK   93  A    between atoms: _222  and  _224
REMARK   94  A    between atoms: _224  and  _225
REMARK   95  A    between atoms: _224  and  _227
REMARK   96  A    between atoms: _227  and  _228
REMARK   97  A    between atoms: _231  and  _233
REMARK   98  A    between atoms: _233  and  _234
REMARK   99  A    between atoms: _233  and  _236
REMARK  100  A    between atoms: _239  and  _241
REMARK  101  A    between atoms: _241  and  _242
REMARK  102  A    between atoms: _241  and  _244
REMARK  103  A    between atoms: _244  and  _245
REMARK  104  A    between atoms: _248  and  _250
REMARK  105  A    between atoms: _250  and  _251
REMARK  106  A    between atoms: _250  and  _253
REMARK  107  A    between atoms: _253  and  _254
REMARK  108  A    between atoms: _257  and  _259
REMARK  109  A    between atoms: _259  and  _260
REMARK  110  A    between atoms: _259  and  _262
REMARK  111  A    between atoms: _262  and  _263
REMARK  112  A    between atoms: _263  and  _264
REMARK  113  A    between atoms: _264  and  _265
REMARK  114  A    between atoms: _265  and  _266
REMARK  115  A    between atoms: _270  and  _272
REMARK  116  A    between atoms: _272  and  _273
REMARK  117  A    between atoms: _272  and  _275
REMARK  118  A    between atoms: _277  and  _279
REMARK  119  A    between atoms: _279  and  _280
REMARK  120  A    between atoms: _279  and  _282
REMARK  121  A    between atoms: _285  and  _287
REMARK  122  A    between atoms: _287  and  _288
REMARK  123  A    between atoms: _287  and  _290
REMARK  124  A    between atoms: _290  and  _291
REMARK  125  A    between atoms: _296  and  _298
REMARK  126  A    between atoms: _298  and  _299
REMARK  127  A    between atoms: _298  and  _301
REMARK  128  A    between atoms: _301  and  _302
REMARK  129  A    between atoms: _305  and  _307
REMARK  130  A    between atoms: _307  and  _308
REMARK  131  A    between atoms: _307  and  _310
REMARK  132  A    between atoms: _310  and  _311
REMARK  133  A    between atoms: _314  and  _316
REMARK  134  A    between atoms: _316  and  _317
REMARK  135  A    between atoms: _316  and  _319
REMARK  136  A    between atoms: _319  and  _320
REMARK  137  A    between atoms: _322  and  _324
REMARK  138  A    between atoms: _324  and  _325
REMARK  139  A    between atoms: _324  and  _327
REMARK  140  A    between atoms: _327  and  _328
REMARK  141  A    between atoms: _331  and  _333
REMARK  142  A    between atoms: _333  and  _334
REMARK  143  A    between atoms: _333  and  _336
REMARK  144  A    between atoms: _336  and  _337
REMARK  145  A    between atoms: _340  and  _342
REMARK  146  A    between atoms: _342  and  _343
REMARK  147  A    between atoms: _342  and  _345
REMARK  148  A    between atoms: _345  and  _346
REMARK  149  A    between atoms: _351  and  _353
REMARK  150  A    between atoms: _353  and  _354
REMARK  151  A    between atoms: _353  and  _356
REMARK  152  A    between atoms: _356  and  _357
REMARK  153  A    between atoms: _362  and  _363
REMARK  154  A    between atoms: _365  and  _367
REMARK  155  A    between atoms: _367  and  _368
REMARK  156  A    between atoms: _367  and  _370
REMARK  157  A    between atoms: _370  and  _371
REMARK  158  A    between atoms: _374  and  _376
REMARK  159  A    between atoms: _376  and  _377
REMARK  160  A    between atoms: _376  and  _379
REMARK  161  A    between atoms: _382  and  _384
REMARK  162  A    between atoms: _384  and  _385
REMARK  163  A    between atoms: _384  and  _387
REMARK  164  A    between atoms: _387  and  _388
REMARK  165  A    between atoms: _388  and  _389
REMARK  166  A    between atoms: _391  and  _393
REMARK  167  A    between atoms: _393  and  _394
REMARK  168  A    between atoms: _393  and  _396
REMARK  169  A    between atoms: _396  and  _397
REMARK  170  A    between atoms: _397  and  _398
REMARK  171  A    between atoms: _401  and  _403
REMARK  172  A    between atoms: _403  and  _404
REMARK  173  A    between atoms: _403  and  _406
REMARK  174  A    between atoms: _406  and  _407
REMARK  175  A    between atoms: _410  and  _412
REMARK  176  A    between atoms: _412  and  _413
REMARK  177  A    between atoms: _412  and  _415
REMARK  178  A    between atoms: _415  and  _416
REMARK  179  A    between atoms: _416  and  _417
REMARK  180  A    between atoms: _419  and  _421
REMARK  181  A    between atoms: _421  and  _422
REMARK  182  A    between atoms: _421  and  _424
REMARK  183  A    between atoms: _424  and  _425
REMARK  184  A    between atoms: _428  and  _430
REMARK  185  A    between atoms: _430  and  _431
REMARK  186  A    between atoms: _434  and  _436
REMARK  187  A    between atoms: _436  and  _437
REMARK  188  A    between atoms: _436  and  _439
REMARK  189  A    between atoms: _439  and  _440
REMARK  190  A    between atoms: _445  and  _447
REMARK  191  A    between atoms: _447  and  _448
REMARK  192  A    between atoms: _447  and  _450
REMARK  193  A    between atoms: _450  and  _451
REMARK  194  A    between atoms: _451  and  _452
REMARK  195  A    between atoms: _457  and  _459
REMARK  196  A    between atoms: _459  and  _460
REMARK  197  A    between atoms: _462  and  _464
REMARK  198  A    between atoms: _464  and  _465
REMARK  199  A    between atoms: _464  and  _467
REMARK  200  A    between atoms: _467  and  _468
REMARK  201  A    between atoms: _471  and  _473
REMARK  202  A    between atoms: _473  and  _474
REMARK  203  A    between atoms: _477  and  _479
REMARK  204  A    between atoms: _479  and  _480
REMARK  205  A    between atoms: _479  and  _482
REMARK  206  A    between atoms: _482  and  _483
REMARK  207  A    between atoms: _486  and  _488
REMARK  208  A    between atoms: _488  and  _489
REMARK  209  A    between atoms: _488  and  _491
REMARK  210  A    between atoms: _491  and  _492
REMARK  211  A    between atoms: _495  and  _497
REMARK  212  A    between atoms: _497  and  _498
REMARK  213  A    between atoms: _497  and  _500
REMARK  214  A    between atoms: _500  and  _501
REMARK  215  A    between atoms: _506  and  _508
REMARK  216  A    between atoms: _508  and  _509
REMARK  217  A    between atoms: _508  and  _511
REMARK  218  A    between atoms: _511  and  _512
REMARK  219  A    between atoms: _512  and  _513
REMARK  220  A    between atoms: _513  and  _514
REMARK  221  A    between atoms: _523  and  _525
REMARK  222  A    between atoms: _525  and  _526
REMARK  223  A    between atoms: _525  and  _528
REMARK  224  A    between atoms: _528  and  _529
REMARK  225  A    between atoms: _532  and  _534
REMARK  226  A    between atoms: _534  and  _535
REMARK  227  A    between atoms: _534  and  _537
REMARK  228  A    between atoms: _537  and  _538
REMARK  229  A    between atoms: _541  and  _543
REMARK  230  A    between atoms: _543  and  _544
REMARK  231  A    between atoms: _543  and  _546
REMARK  232  A    between atoms: _546  and  _547
REMARK  233  A    between atoms: _549  and  _551
REMARK  234  A    between atoms: _551  and  _552
REMARK  235  A    between atoms: _551  and  _554
REMARK  236  A    between atoms: _554  and  _555
REMARK  237  A    between atoms: _560  and  _562
REMARK  238  A    between atoms: _562  and  _563
REMARK  239  A    between atoms: _562  and  _565
REMARK  240  A    between atoms: _565  and  _566
REMARK  241  A    between atoms: _569  and  _571
REMARK  242  A    between atoms: _571  and  _572
REMARK  243  A    between atoms: _571  and  _574
REMARK  244  A    between atoms: _577  and  _579
REMARK  245  A    between atoms: _579  and  _580
REMARK  246  A    between atoms: _579  and  _582
REMARK  247  A    between atoms: _585  and  _587
REMARK  248  A    between atoms: _587  and  _588
REMARK  249  A    between atoms: _587  and  _590
REMARK  250  A    between atoms: _590  and  _591
REMARK  251  A    between atoms: _591  and  _592
REMARK  252  A    between atoms: _592  and  _593
REMARK  253  A    between atoms: _593  and  _594
REMARK  254  A    between atoms: _598  and  _600
REMARK  255  A    between atoms: _600  and  _601
REMARK  256  A    between atoms: _600  and  _603
REMARK  257  A    between atoms: _603  and  _604
REMARK  258  A    between atoms: _604  and  _605
REMARK  259  A    between atoms: _605  and  _606
REMARK  260  A    between atoms: _606  and  _607
REMARK  261  A    between atoms: _611  and  _613
REMARK  262  A    between atoms: _613  and  _614
REMARK  263  A    between atoms: _613  and  _616
REMARK  264  A    between atoms: _616  and  _617
REMARK  265  A    between atoms: _620  and  _622
REMARK  266  A    between atoms: _622  and  _623
REMARK  267  A    between atoms: _622  and  _625
REMARK  268  A    between atoms: _625  and  _626
REMARK  269  A    between atoms: _629  and  _631
REMARK  270  A    between atoms: _631  and  _632
REMARK  271  A    between atoms: _631  and  _634
REMARK  272  A    between atoms: _634  and  _635
REMARK  273  A    between atoms: _638  and  _640
REMARK  274  A    between atoms: _640  and  _641
REMARK  275  A    between atoms: _640  and  _643
REMARK  276  A    between atoms: _643  and  _644
REMARK  277  A    between atoms: _650  and  _652
REMARK  278  A    between atoms: _652  and  _653
REMARK  279  A    between atoms: _655  and  _657
REMARK  280  A    between atoms: _657  and  _658
REMARK  281  A    between atoms: _657  and  _660
REMARK  282  A    between atoms: _660  and  _661
REMARK  283  A    between atoms: _664  and  _666
REMARK  284  A    between atoms: _666  and  _667
REMARK  285  A    between atoms: _670  and  _672
REMARK  286  A    between atoms: _672  and  _673
REMARK  287  A    between atoms: _672  and  _675
REMARK  288  A    between atoms: _675  and  _676
REMARK  289  A    between atoms: _676  and  _677
REMARK  290  A    between atoms: _679  and  _681
REMARK  291  A    between atoms: _681  and  _682
REMARK  292  A    between atoms: _681  and  _684
REMARK  293  A    between atoms: _684  and  _685
REMARK  294  A    between atoms: _685  and  _686
REMARK  295  A    between atoms: _688  and  _690
REMARK  296  A    between atoms: _690  and  _691
REMARK  297  A    between atoms: _690  and  _693
REMARK  298  A    between atoms: _693  and  _694
REMARK  299  A    between atoms: _697  and  _699
REMARK  300  A    between atoms: _699  and  _700
REMARK  301  A    between atoms: _699  and  _702
REMARK  302  A    between atoms: _702  and  _703
REMARK  303  A    between atoms: _706  and  _708
REMARK  304  A    between atoms: _708  and  _709
REMARK  305  A    between atoms: _708  and  _711
REMARK  306  A    between atoms: _711  and  _712
REMARK  307  A    between atoms: _712  and  _713
REMARK                            x       y       z     vdW  Elec       q    Type
REMARK                         _______ _______ _______ _____ _____    ______ ____
ROOT
ATOM      1  O   HOH     1      49.399  41.813  12.892  0.00  0.00    +0.000 OA
ENDROOT
TORSDOF 0
REMARK  Name = ../refined-set-2016/3npc/3npc_pocket.pdb
REMARK  307 active torsions:
REMARK  status: ('A' for Active; 'I' for Inactive)
REMARK    1  A    between atoms: _1  and  _3
REMARK    2  A    between atoms: _3  and  _4
REMARK    3  A    between atoms: _3  and  _6
REMARK    4  A    between atoms: _6  and  _7
REMARK    5  A    between atoms: _10  and  _12
REMARK    6  A    between atoms: _12  and  _13
REMARK    7  A    between atoms: _15  and  _17
REMARK    8  A    between atoms: _17  and  _18
REMARK    9  A    between atoms: _17  and  _20
REMARK   10  A    between atoms: _20  and  _21
REMARK   11  A    between atoms: _21  and  _22
REMARK   12  A    between atoms: _27  and  _29
REMARK   13  A    between atoms: _29  and  _30
REMARK   14  A    between atoms: _29  and  _32
REMARK   15  A    between atoms: _32  and  _33
REMARK   16  A    between atoms: _36  and  _38
REMARK   17  A    between atoms: _38  and  _39
REMARK   18  A    between atoms: _38  and  _41
REMARK   19  A    between atoms: _44  and  _46
REMARK   20  A    between atoms: _46  and  _47
REMARK   21  A    between atoms: _46  and  _49
REMARK   22  A    between atoms: _51  and  _53
REMARK   23  A    between atoms: _53  and  _54
REMARK   24  A    between atoms: _57  and  _59
REMARK   25  A    between atoms: _59  and  _60
REMARK   26  A    between atoms: _59  and  _62
REMARK   27  A    between atoms: _62  and  _63
REMARK   28  A    between atoms: _68  and  _70
REMARK   29  A    between atoms: _70  and  _71
REMARK   30  A    between atoms: _70  and  _73
REMARK   31  A    between atoms: _76  and  _78
REMARK   32  A    between atoms: _78  and  _79
REMARK   33  A    between atoms: _82  and  _84
REMARK   34  A    between atoms: _84  and  _85
REMARK   35  A    between atoms: _84  and  _87
REMARK   36  A    between atoms: _90  and  _92
REMARK   37  A    between atoms: _92  and  _93
REMARK   38  A    between atoms: _92  and  _95
REMARK   39  A    between atoms: _95  and  _96
REMARK   40  A    between atoms: _96  and  _97
REMARK   41  A    between atoms: _97  and  _98
REMARK   42  A    between atoms: _98  and  _99
REMARK   43  A    between atoms: _103  and  _105
REMARK   44  A    between atoms: _105  and  _106
REMARK   45  A    between atoms: _105  and  _108
REMARK   46  A    between atoms: _108  and  _109
REMARK   47  A    between atoms: _109  and  _110
REMARK   48  A    between atoms: _110  and  _111
REMARK   49  A    between atoms: _111  and  _112
REMARK   50  A    between atoms: _116  and  _118
REMARK   51  A    between atoms: _118  and  _119
REMARK   52  A    between atoms: _118  and  _121
REMARK   53  A    between atoms: _121  and  _122
REMARK   54  A    between atoms: _125  and  _127
REMARK   55  A    between atoms: _127  and  _128
REMARK   56  A    between atoms: _127  and  _130
REMARK   57  A    between atoms: _130  and  _131
REMARK   58  A    between atoms: _134  and  _136
REMARK   59  A    between atoms: _136  and  _137
REMARK   60  A    between atoms: _136  and  _139
REMARK   61  A    between atoms: _139  and  _140
REMARK   62  A    between atoms: _145  and  _147
REMARK   63  A    between atoms: _147  and  _148
REMARK   64  A    between atoms: _147  and  _150
REMARK   65  A    between atoms: _150  and  _151
REMARK   66  A    between atoms: _151  and  _152
REMARK   67  A    between atoms: _152  and  _153
REMARK   68  A    between atoms: _153  and  _154
REMARK   69  A    between atoms: _158  and  _160
REMARK   70  A    between atoms: _160  and  _161
REMARK   71  A    between atoms: _160  and  _163
REMARK   72  A    between atoms: _163  and  _164
REMARK   73  A    between atoms: _164  and  _165
REMARK   74  A    between atoms: _165  and  _166
REMARK   75  A    between atoms: _175  and  _177
REMARK   76  A    between atoms: _177  and  _178
REMARK   77  A    between atoms: _181  and  _183
REMARK   78  A    between atoms: _183  and  _184
REMARK   79  A    between atoms: _183  and  _186
REMARK   80  A    between atoms: _186  and  _187
REMARK   81  A    between atoms: _192  and  _193
REMARK   82  A    between atoms: _195  and  _197
REMARK   83  A    between atoms: _197  and  _198
REMARK   84  A    between atoms: _197  and  _200
REMARK   85  A    between atoms: _200  and  _201
REMARK   86  A    between atoms: _201  and  _202
REMARK   87  A    between atoms: _202  and  _203
REMARK   88  A    between atoms: _212  and  _214
REMARK   89  A    between atoms: _214  and  _215
REMARK   90  A    between atoms: _214  and  _217
REMARK   91  A    between atoms: _217  and  _218
REMARK   92  A    between atoms: _218  and  _219
REMARK   93  A    between atoms: _222  and  _224
REMARK   94  A    between atoms: _224  and  _225
REMARK   95  A    between atoms: _224  and  _227
REMARK   96  A    between atoms: _227  and  _228
REMARK   97  A    between atoms: _231  and  _233
REMARK   98  A    between atoms: _233  and  _234
REMARK   99  A    between atoms: _233  and  _236
REMARK  100  A    between atoms: _239  and  _241
REMARK  101  A    between atoms: _241  and  _242
REMARK  102  A    between atoms: _241  and  _244
REMARK  103  A    between atoms: _244  and  _245
REMARK  104  A    between atoms: _248  and  _250
REMARK  105  A    between atoms: _250  and  _251
REMARK  106  A    between atoms: _250  and  _253
REMARK  107  A    between atoms: _253  and  _254
REMARK  108  A    between atoms: _257  and  _259
REMARK  109  A    between atoms: _259  and  _260
REMARK  110  A    between atoms: _259  and  _262
REMARK  111  A    between atoms: _262  and  _263
REMARK  112  A    between atoms: _263  and  _264
REMARK  113  A    between atoms: _264  and  _265
REMARK  114  A    between atoms: _265  and  _266
REMARK  115  A    between atoms: _270  and  _272
REMARK  116  A    between atoms: _272  and  _273
REMARK  117  A    between atoms: _272  and  _275
REMARK  118  A    between atoms: _277  and  _279
REMARK  119  A    between atoms: _279  and  _280
REMARK  120  A    between atoms: _279  and  _282
REMARK  121  A    between atoms: _285  and  _287
REMARK  122  A    between atoms: _287  and  _288
REMARK  123  A    between atoms: _287  and  _290
REMARK  124  A    between atoms: _290  and  _291
REMARK  125  A    between atoms: _296  and  _298
REMARK  126  A    between atoms: _298  and  _299
REMARK  127  A    between atoms: _298  and  _301
REMARK  128  A    between atoms: _301  and  _302
REMARK  129  A    between atoms: _305  and  _307
REMARK  130  A    between atoms: _307  and  _308
REMARK  131  A    between atoms: _307  and  _310
REMARK  132  A    between atoms: _310  and  _311
REMARK  133  A    between atoms: _314  and  _316
REMARK  134  A    between atoms: _316  and  _317
REMARK  135  A    between atoms: _316  and  _319
REMARK  136  A    between atoms: _319  and  _320
REMARK  137  A    between atoms: _322  and  _324
REMARK  138  A    between atoms: _324  and  _325
REMARK  139  A    between atoms: _324  and  _327
REMARK  140  A    between atoms: _327  and  _328
REMARK  141  A    between atoms: _331  and  _333
REMARK  142  A    between atoms: _333  and  _334
REMARK  143  A    between atoms: _333  and  _336
REMARK  144  A    between atoms: _336  and  _337
REMARK  145  A    between atoms: _340  and  _342
REMARK  146  A    between atoms: _342  and  _343
REMARK  147  A    between atoms: _342  and  _345
REMARK  148  A    between atoms: _345  and  _346
REMARK  149  A    between atoms: _351  and  _353
REMARK  150  A    between atoms: _353  and  _354
REMARK  151  A    between atoms: _353  and  _356
REMARK  152  A    between atoms: _356  and  _357
REMARK  153  A    between atoms: _362  and  _363
REMARK  154  A    between atoms: _365  and  _367
REMARK  155  A    between atoms: _367  and  _368
REMARK  156  A    between atoms: _367  and  _370
REMARK  157  A    between atoms: _370  and  _371
REMARK  158  A    between atoms: _374  and  _376
REMARK  159  A    between atoms: _376  and  _377
REMARK  160  A    between atoms: _376  and  _379
REMARK  161  A    between atoms: _382  and  _384
REMARK  162  A    between atoms: _384  and  _385
REMARK  163  A    between atoms: _384  and  _387
REMARK  164  A    between atoms: _387  and  _388
REMARK  165  A    between atoms: _388  and  _389
REMARK  166  A    between atoms: _391  and  _393
REMARK  167  A    between atoms: _393  and  _394
REMARK  168  A    between atoms: _393  and  _396
REMARK  169  A    between atoms: _396  and  _397
REMARK  170  A    between atoms: _397  and  _398
REMARK  171  A    between atoms: _401  and  _403
REMARK  172  A    between atoms: _403  and  _404
REMARK  173  A    between atoms: _403  and  _406
REMARK  174  A    between atoms: _406  and  _407
REMARK  175  A    between atoms: _410  and  _412
REMARK  176  A    between atoms: _412  and  _413
REMARK  177  A    between atoms: _412  and  _415
REMARK  178  A    between atoms: _415  and  _416
REMARK  179  A    between atoms: _416  and  _417
REMARK  180  A    between atoms: _419  and  _421
REMARK  181  A    between atoms: _421  and  _422
REMARK  182  A    between atoms: _421  and  _424
REMARK  183  A    between atoms: _424  and  _425
REMARK  184  A    between atoms: _428  and  _430
REMARK  185  A    between atoms: _430  and  _431
REMARK  186  A    between atoms: _434  and  _436
REMARK  187  A    between atoms: _436  and  _437
REMARK  188  A    between atoms: _436  and  _439
REMARK  189  A    between atoms: _439  and  _440
REMARK  190  A    between atoms: _445  and  _447
REMARK  191  A    between atoms: _447  and  _448
REMARK  192  A    between atoms: _447  and  _450
REMARK  193  A    between atoms: _450  and  _451
REMARK  194  A    between atoms: _451  and  _452
REMARK  195  A    between atoms: _457  and  _459
REMARK  196  A    between atoms: _459  and  _460
REMARK  197  A    between atoms: _462  and  _464
REMARK  198  A    between atoms: _464  and  _465
REMARK  199  A    between atoms: _464  and  _467
REMARK  200  A    between atoms: _467  and  _468
REMARK  201  A    between atoms: _471  and  _473
REMARK  202  A    between atoms: _473  and  _474
REMARK  203  A    between atoms: _477  and  _479
REMARK  204  A    between atoms: _479  and  _480
REMARK  205  A    between atoms: _479  and  _482
REMARK  206  A    between atoms: _482  and  _483
REMARK  207  A    between atoms: _486  and  _488
REMARK  208  A    between atoms: _488  and  _489
REMARK  209  A    between atoms: _488  and  _491
REMARK  210  A    between atoms: _491  and  _492
REMARK  211  A    between atoms: _495  and  _497
REMARK  212  A    between atoms: _497  and  _498
REMARK  213  A    between atoms: _497  and  _500
REMARK  214  A    between atoms: _500  and  _501
REMARK  215  A    between atoms: _506  and  _508
REMARK  216  A    between atoms: _508  and  _509
REMARK  217  A    between atoms: _508  and  _511
REMARK  218  A    between atoms: _511  and  _512
REMARK  219  A    between atoms: _512  and  _513
REMARK  220  A    between atoms: _513  and  _514
REMARK  221  A    between atoms: _523  and  _525
REMARK  222  A    between atoms: _525  and  _526
REMARK  223  A    between atoms: _525  and  _528
REMARK  224  A    between atoms: _528  and  _529
REMARK  225  A    between atoms: _532  and  _534
REMARK  226  A    between atoms: _534  and  _535
REMARK  227  A    between atoms: _534  and  _537
REMARK  228  A    between atoms: _537  and  _538
REMARK  229  A    between atoms: _541  and  _543
REMARK  230  A    between atoms: _543  and  _544
REMARK  231  A    between atoms: _543  and  _546
REMARK  232  A    between atoms: _546  and  _547
REMARK  233  A    between atoms: _549  and  _551
REMARK  234  A    between atoms: _551  and  _552
REMARK  235  A    between atoms: _551  and  _554
REMARK  236  A    between atoms: _554  and  _555
REMARK  237  A    between atoms: _560  and  _562
REMARK  238  A    between atoms: _562  and  _563
REMARK  239  A    between atoms: _562  and  _565
REMARK  240  A    between atoms: _565  and  _566
REMARK  241  A    between atoms: _569  and  _571
REMARK  242  A    between atoms: _571  and  _572
REMARK  243  A    between atoms: _571  and  _574
REMARK  244  A    between atoms: _577  and  _579
REMARK  245  A    between atoms: _579  and  _580
REMARK  246  A    between atoms: _579  and  _582
REMARK  247  A    between atoms: _585  and  _587
REMARK  248  A    between atoms: _587  and  _588
REMARK  249  A    between atoms: _587  and  _590
REMARK  250  A    between atoms: _590  and  _591
REMARK  251  A    between atoms: _591  and  _592
REMARK  252  A    between atoms: _592  and  _593
REMARK  253  A    between atoms: _593  and  _594
REMARK  254  A    between atoms: _598  and  _600
REMARK  255  A    between atoms: _600  and  _601
REMARK  256  A    between atoms: _600  and  _603
REMARK  257  A    between atoms: _603  and  _604
REMARK  258  A    between atoms: _604  and  _605
REMARK  259  A    between atoms: _605  and  _606
REMARK  260  A    between atoms: _606  and  _607
REMARK  261  A    between atoms: _611  and  _613
REMARK  262  A    between atoms: _613  and  _614
REMARK  263  A    between atoms: _613  and  _616
REMARK  264  A    between atoms: _616  and  _617
REMARK  265  A    between atoms: _620  and  _622
REMARK  266  A    between atoms: _622  and  _623
REMARK  267  A    between atoms: _622  and  _625
REMARK  268  A    between atoms: _625  and  _626
REMARK  269  A    between atoms: _629  and  _631
REMARK  270  A    between atoms: _631  and  _632
REMARK  271  A    between atoms: _631  and  _634
REMARK  272  A    between atoms: _634  and  _635
REMARK  273  A    between atoms: _638  and  _640
REMARK  274  A    between atoms: _640  and  _641
REMARK  275  A    between atoms: _640  and  _643
REMARK  276  A    between atoms: _643  and  _644
REMARK  277  A    between atoms: _650  and  _652
REMARK  278  A    between atoms: _652  and  _653
REMARK  279  A    between atoms: _655  and  _657
REMARK  280  A    between atoms: _657  and  _658
REMARK  281  A    between atoms: _657  and  _660
REMARK  282  A    between atoms: _660  and  _661
REMARK  283  A    between atoms: _664  and  _666
REMARK  284  A    between atoms: _666  and  _667
REMARK  285  A    between atoms: _670  and  _672
REMARK  286  A    between atoms: _672  and  _673
REMARK  287  A    between atoms: _672  and  _675
REMARK  288  A    between atoms: _675  and  _676
REMARK  289  A    between atoms: _676  and  _677
REMARK  290  A    between atoms: _679  and  _681
REMARK  291  A    between atoms: _681  and  _682
REMARK  292  A    between atoms: _681  and  _684
REMARK  293  A    between atoms: _684  and  _685
REMARK  294  A    between atoms: _685  and  _686
REMARK  295  A    between atoms: _688  and  _690
REMARK  296  A    between atoms: _690  and  _691
REMARK  297  A    between atoms: _690  and  _693
REMARK  298  A    between atoms: _693  and  _694
REMARK  299  A    between atoms: _697  and  _699
REMARK  300  A    between atoms: _699  and  _700
REMARK  301  A    between atoms: _699  and  _702
REMARK  302  A    between atoms: _702  and  _703
REMARK  303  A    between atoms: _706  and  _708
REMARK  304  A    between atoms: _708  and  _709
REMARK  305  A    between atoms: _708  and  _711
REMARK  306  A    between atoms: _711  and  _712
REMARK  307  A    between atoms: _712  and  _713
REMARK                            x       y       z     vdW  Elec       q    Type
REMARK                         _______ _______ _______ _____ _____    ______ ____
ROOT
ATOM      1  O   HOH     1      54.698  57.002   7.213  0.00  0.00    +0.000 OA
ENDROOT
TORSDOF 0
REMARK  Name = ../refined-set-2016/3npc/3npc_pocket.pdb
REMARK  307 active torsions:
REMARK  status: ('A' for Active; 'I' for Inactive)
REMARK    1  A    between atoms: _1  and  _3
REMARK    2  A    between atoms: _3  and  _4
REMARK    3  A    between atoms: _3  and  _6
REMARK    4  A    between atoms: _6  and  _7
REMARK    5  A    between atoms: _10  and  _12
REMARK    6  A    between atoms: _12  and  _13
REMARK    7  A    between atoms: _15  and  _17
REMARK    8  A    between atoms: _17  and  _18
REMARK    9  A    between atoms: _17  and  _20
REMARK   10  A    between atoms: _20  and  _21
REMARK   11  A    between atoms: _21  and  _22
REMARK   12  A    between atoms: _27  and  _29
REMARK   13  A    between atoms: _29  and  _30
REMARK   14  A    between atoms: _29  and  _32
REMARK   15  A    between atoms: _32  and  _33
REMARK   16  A    between atoms: _36  and  _38
REMARK   17  A    between atoms: _38  and  _39
REMARK   18  A    between atoms: _38  and  _41
REMARK   19  A    between atoms: _44  and  _46
REMARK   20  A    between atoms: _46  and  _47
REMARK   21  A    between atoms: _46  and  _49
REMARK   22  A    between atoms: _51  and  _53
REMARK   23  A    between atoms: _53  and  _54
REMARK   24  A    between atoms: _57  and  _59
REMARK   25  A    between atoms: _59  and  _60
REMARK   26  A    between atoms: _59  and  _62
REMARK   27  A    between atoms: _62  and  _63
REMARK   28  A    between atoms: _68  and  _70
REMARK   29  A    between atoms: _70  and  _71
REMARK   30  A    between atoms: _70  and  _73
REMARK   31  A    between atoms: _76  and  _78
REMARK   32  A    between atoms: _78  and  _79
REMARK   33  A    between atoms: _82  and  _84
REMARK   34  A    between atoms: _84  and  _85
REMARK   35  A    between atoms: _84  and  _87
REMARK   36  A    between atoms: _90  and  _92
REMARK   37  A    between atoms: _92  and  _93
REMARK   38  A    between atoms: _92  and  _95
REMARK   39  A    between atoms: _95  and  _96
REMARK   40  A    between atoms: _96  and  _97
REMARK   41  A    between atoms: _97  and  _98
REMARK   42  A    between atoms: _98  and  _99
REMARK   43  A    between atoms: _103  and  _105
REMARK   44  A    between atoms: _105  and  _106
REMARK   45  A    between atoms: _105  and  _108
REMARK   46  A    between atoms: _108  and  _109
REMARK   47  A    between atoms: _109  and  _110
REMARK   48  A    between atoms: _110  and  _111
REMARK   49  A    between atoms: _111  and  _112
REMARK   50  A    between atoms: _116  and  _118
REMARK   51  A    between atoms: _118  and  _119
REMARK   52  A    between atoms: _118  and  _121
REMARK   53  A    between atoms: _121  and  _122
REMARK   54  A    between atoms: _125  and  _127
REMARK   55  A    between atoms: _127  and  _128
REMARK   56  A    between atoms: _127  and  _130
REMARK   57  A    between atoms: _130  and  _131
REMARK   58  A    between atoms: _134  and  _136
REMARK   59  A    between atoms: _136  and  _137
REMARK   60  A    between atoms: _136  and  _139
REMARK   61  A    between atoms: _139  and  _140
REMARK   62  A    between atoms: _145  and  _147
REMARK   63  A    between atoms: _147  and  _148
REMARK   64  A    between atoms: _147  and  _150
REMARK   65  A    between atoms: _150  and  _151
REMARK   66  A    between atoms: _151  and  _152
REMARK   67  A    between atoms: _152  and  _153
REMARK   68  A    between atoms: _153  and  _154
REMARK   69  A    between atoms: _158  and  _160
REMARK   70  A    between atoms: _160  and  _161
REMARK   71  A    between atoms: _160  and  _163
REMARK   72  A    between atoms: _163  and  _164
REMARK   73  A    between atoms: _164  and  _165
REMARK   74  A    between atoms: _165  and  _166
REMARK   75  A    between atoms: _175  and  _177
REMARK   76  A    between atoms: _177  and  _178
REMARK   77  A    between atoms: _181  and  _183
REMARK   78  A    between atoms: _183  and  _184
REMARK   79  A    between atoms: _183  and  _186
REMARK   80  A    between atoms: _186  and  _187
REMARK   81  A    between atoms: _192  and  _193
REMARK   82  A    between atoms: _195  and  _197
REMARK   83  A    between atoms: _197  and  _198
REMARK   84  A    between atoms: _197  and  _200
REMARK   85  A    between atoms: _200  and  _201
REMARK   86  A    between atoms: _201  and  _202
REMARK   87  A    between atoms: _202  and  _203
REMARK   88  A    between atoms: _212  and  _214
REMARK   89  A    between atoms: _214  and  _215
REMARK   90  A    between atoms: _214  and  _217
REMARK   91  A    between atoms: _217  and  _218
REMARK   92  A    between atoms: _218  and  _219
REMARK   93  A    between atoms: _222  and  _224
REMARK   94  A    between atoms: _224  and  _225
REMARK   95  A    between atoms: _224  and  _227
REMARK   96  A    between atoms: _227  and  _228
REMARK   97  A    between atoms: _231  and  _233
REMARK   98  A    between atoms: _233  and  _234
REMARK   99  A    between atoms: _233  and  _236
REMARK  100  A    between atoms: _239  and  _241
REMARK  101  A    between atoms: _241  and  _242
REMARK  102  A    between atoms: _241  and  _244
REMARK  103  A    between atoms: _244  and  _245
REMARK  104  A    between atoms: _248  and  _250
REMARK  105  A    between atoms: _250  and  _251
REMARK  106  A    between atoms: _250  and  _253
REMARK  107  A    between atoms: _253  and  _254
REMARK  108  A    between atoms: _257  and  _259
REMARK  109  A    between atoms: _259  and  _260
REMARK  110  A    between atoms: _259  and  _262
REMARK  111  A    between atoms: _262  and  _263
REMARK  112  A    between atoms: _263  and  _264
REMARK  113  A    between atoms: _264  and  _265
REMARK  114  A    between atoms: _265  and  _266
REMARK  115  A    between atoms: _270  and  _272
REMARK  116  A    between atoms: _272  and  _273
REMARK  117  A    between atoms: _272  and  _275
REMARK  118  A    between atoms: _277  and  _279
REMARK  119  A    between atoms: _279  and  _280
REMARK  120  A    between atoms: _279  and  _282
REMARK  121  A    between atoms: _285  and  _287
REMARK  122  A    between atoms: _287  and  _288
REMARK  123  A    between atoms: _287  and  _290
REMARK  124  A    between atoms: _290  and  _291
REMARK  125  A    between atoms: _296  and  _298
REMARK  126  A    between atoms: _298  and  _299
REMARK  127  A    between atoms: _298  and  _301
REMARK  128  A    between atoms: _301  and  _302
REMARK  129  A    between atoms: _305  and  _307
REMARK  130  A    between atoms: _307  and  _308
REMARK  131  A    between atoms: _307  and  _310
REMARK  132  A    between atoms: _310  and  _311
REMARK  133  A    between atoms: _314  and  _316
REMARK  134  A    between atoms: _316  and  _317
REMARK  135  A    between atoms: _316  and  _319
REMARK  136  A    between atoms: _319  and  _320
REMARK  137  A    between atoms: _322  and  _324
REMARK  138  A    between atoms: _324  and  _325
REMARK  139  A    between atoms: _324  and  _327
REMARK  140  A    between atoms: _327  and  _328
REMARK  141  A    between atoms: _331  and  _333
REMARK  142  A    between atoms: _333  and  _334
REMARK  143  A    between atoms: _333  and  _336
REMARK  144  A    between atoms: _336  and  _337
REMARK  145  A    between atoms: _340  and  _342
REMARK  146  A    between atoms: _342  and  _343
REMARK  147  A    between atoms: _342  and  _345
REMARK  148  A    between atoms: _345  and  _346
REMARK  149  A    between atoms: _351  and  _353
REMARK  150  A    between atoms: _353  and  _354
REMARK  151  A    between atoms: _353  and  _356
REMARK  152  A    between atoms: _356  and  _357
REMARK  153  A    between atoms: _362  and  _363
REMARK  154  A    between atoms: _365  and  _367
REMARK  155  A    between atoms: _367  and  _368
REMARK  156  A    between atoms: _367  and  _370
REMARK  157  A    between atoms: _370  and  _371
REMARK  158  A    between atoms: _374  and  _376
REMARK  159  A    between atoms: _376  and  _377
REMARK  160  A    between atoms: _376  and  _379
REMARK  161  A    between atoms: _382  and  _384
REMARK  162  A    between atoms: _384  and  _385
REMARK  163  A    between atoms: _384  and  _387
REMARK  164  A    between atoms: _387  and  _388
REMARK  165  A    between atoms: _388  and  _389
REMARK  166  A    between atoms: _391  and  _393
REMARK  167  A    between atoms: _393  and  _394
REMARK  168  A    between atoms: _393  and  _396
REMARK  169  A    between atoms: _396  and  _397
REMARK  170  A    between atoms: _397  and  _398
REMARK  171  A    between atoms: _401  and  _403
REMARK  172  A    between atoms: _403  and  _404
REMARK  173  A    between atoms: _403  and  _406
REMARK  174  A    between atoms: _406  and  _407
REMARK  175  A    between atoms: _410  and  _412
REMARK  176  A    between atoms: _412  and  _413
REMARK  177  A    between atoms: _412  and  _415
REMARK  178  A    between atoms: _415  and  _416
REMARK  179  A    between atoms: _416  and  _417
REMARK  180  A    between atoms: _419  and  _421
REMARK  181  A    between atoms: _421  and  _422
REMARK  182  A    between atoms: _421  and  _424
REMARK  183  A    between atoms: _424  and  _425
REMARK  184  A    between atoms: _428  and  _430
REMARK  185  A    between atoms: _430  and  _431
REMARK  186  A    between atoms: _434  and  _436
REMARK  187  A    between atoms: _436  and  _437
REMARK  188  A    between atoms: _436  and  _439
REMARK  189  A    between atoms: _439  and  _440
REMARK  190  A    between atoms: _445  and  _447
REMARK  191  A    between atoms: _447  and  _448
REMARK  192  A    between atoms: _447  and  _450
REMARK  193  A    between atoms: _450  and  _451
REMARK  194  A    between atoms: _451  and  _452
REMARK  195  A    between atoms: _457  and  _459
REMARK  196  A    between atoms: _459  and  _460
REMARK  197  A    between atoms: _462  and  _464
REMARK  198  A    between atoms: _464  and  _465
REMARK  199  A    between atoms: _464  and  _467
REMARK  200  A    between atoms: _467  and  _468
REMARK  201  A    between atoms: _471  and  _473
REMARK  202  A    between atoms: _473  and  _474
REMARK  203  A    between atoms: _477  and  _479
REMARK  204  A    between atoms: _479  and  _480
REMARK  205  A    between atoms: _479  and  _482
REMARK  206  A    between atoms: _482  and  _483
REMARK  207  A    between atoms: _486  and  _488
REMARK  208  A    between atoms: _488  and  _489
REMARK  209  A    between atoms: _488  and  _491
REMARK  210  A    between atoms: _491  and  _492
REMARK  211  A    between atoms: _495  and  _497
REMARK  212  A    between atoms: _497  and  _498
REMARK  213  A    between atoms: _497  and  _500
REMARK  214  A    between atoms: _500  and  _501
REMARK  215  A    between atoms: _506  and  _508
REMARK  216  A    between atoms: _508  and  _509
REMARK  217  A    between atoms: _508  and  _511
REMARK  218  A    between atoms: _511  and  _512
REMARK  219  A    between atoms: _512  and  _513
REMARK  220  A    between atoms: _513  and  _514
REMARK  221  A    between atoms: _523  and  _525
REMARK  222  A    between atoms: _525  and  _526
REMARK  223  A    between atoms: _525  and  _528
REMARK  224  A    between atoms: _528  and  _529
REMARK  225  A    between atoms: _532  and  _534
REMARK  226  A    between atoms: _534  and  _535
REMARK  227  A    between atoms: _534  and  _537
REMARK  228  A    between atoms: _537  and  _538
REMARK  229  A    between atoms: _541  and  _543
REMARK  230  A    between atoms: _543  and  _544
REMARK  231  A    between atoms: _543  and  _546
REMARK  232  A    between atoms: _546  and  _547
REMARK  233  A    between atoms: _549  and  _551
REMARK  234  A    between atoms: _551  and  _552
REMARK  235  A    between atoms: _551  and  _554
REMARK  236  A    between atoms: _554  and  _555
REMARK  237  A    between atoms: _560  and  _562
REMARK  238  A    between atoms: _562  and  _563
REMARK  239  A    between atoms: _562  and  _565
REMARK  240  A    between atoms: _565  and  _566
REMARK  241  A    between atoms: _569  and  _571
REMARK  242  A    between atoms: _571  and  _572
REMARK  243  A    between atoms: _571  and  _574
REMARK  244  A    between atoms: _577  and  _579
REMARK  245  A    between atoms: _579  and  _580
REMARK  246  A    between atoms: _579  and  _582
REMARK  247  A    between atoms: _585  and  _587
REMARK  248  A    between atoms: _587  and  _588
REMARK  249  A    between atoms: _587  and  _590
REMARK  250  A    between atoms: _590  and  _591
REMARK  251  A    between atoms: _591  and  _592
REMARK  252  A    between atoms: _592  and  _593
REMARK  253  A    between atoms: _593  and  _594
REMARK  254  A    between atoms: _598  and  _600
REMARK  255  A    between atoms: _600  and  _601
REMARK  256  A    between atoms: _600  and  _603
REMARK  257  A    between atoms: _603  and  _604
REMARK  258  A    between atoms: _604  and  _605
REMARK  259  A    between atoms: _605  and  _606
REMARK  260  A    between atoms: _606  and  _607
REMARK  261  A    between atoms: _611  and  _613
REMARK  262  A    between atoms: _613  and  _614
REMARK  263  A    between atoms: _613  and  _616
REMARK  264  A    between atoms: _616  and  _617
REMARK  265  A    between atoms: _620  and  _622
REMARK  266  A    between atoms: _622  and  _623
REMARK  267  A    between atoms: _622  and  _625
REMARK  268  A    between atoms: _625  and  _626
REMARK  269  A    between atoms: _629  and  _631
REMARK  270  A    between atoms: _631  and  _632
REMARK  271  A    between atoms: _631  and  _634
REMARK  272  A    between atoms: _634  and  _635
REMARK  273  A    between atoms: _638  and  _640
REMARK  274  A    between atoms: _640  and  _641
REMARK  275  A    between atoms: _640  and  _643
REMARK  276  A    between atoms: _643  and  _644
REMARK  277  A    between atoms: _650  and  _652
REMARK  278  A    between atoms: _652  and  _653
REMARK  279  A    between atoms: _655  and  _657
REMARK  280  A    between atoms: _657  and  _658
REMARK  281  A    between atoms: _657  and  _660
REMARK  282  A    between atoms: _660  and  _661
REMARK  283  A    between atoms: _664  and  _666
REMARK  284  A    between atoms: _666  and  _667
REMARK  285  A    between atoms: _670  and  _672
REMARK  286  A    between atoms: _672  and  _673
REMARK  287  A    between atoms: _672  and  _675
REMARK  288  A    between atoms: _675  and  _676
REMARK  289  A    between atoms: _676  and  _677
REMARK  290  A    between atoms: _679  and  _681
REMARK  291  A    between atoms: _681  and  _682
REMARK  292  A    between atoms: _681  and  _684
REMARK  293  A    between atoms: _684  and  _685
REMARK  294  A    between atoms: _685  and  _686
REMARK  295  A    between atoms: _688  and  _690
REMARK  296  A    between atoms: _690  and  _691
REMARK  297  A    between atoms: _690  and  _693
REMARK  298  A    between atoms: _693  and  _694
REMARK  299  A    between atoms: _697  and  _699
REMARK  300  A    between atoms: _699  and  _700
REMARK  301  A    between atoms: _699  and  _702
REMARK  302  A    between atoms: _702  and  _703
REMARK  303  A    between atoms: _706  and  _708
REMARK  304  A    between atoms: _708  and  _709
REMARK  305  A    between atoms: _708  and  _711
REMARK  306  A    between atoms: _711  and  _712
REMARK  307  A    between atoms: _712  and  _713
REMARK                            x       y       z     vdW  Elec       q    Type
REMARK                         _______ _______ _______ _____ _____    ______ ____
ROOT
ATOM      1  O   HOH     1      62.376  40.703  14.793  0.00  0.00    +0.000 OA
ENDROOT
TORSDOF 0
REMARK  Name = ../refined-set-2016/3npc/3npc_pocket.pdb
REMARK  307 active torsions:
REMARK  status: ('A' for Active; 'I' for Inactive)
REMARK    1  A    between atoms: _1  and  _3
REMARK    2  A    between atoms: _3  and  _4
REMARK    3  A    between atoms: _3  and  _6
REMARK    4  A    between atoms: _6  and  _7
REMARK    5  A    between atoms: _10  and  _12
REMARK    6  A    between atoms: _12  and  _13
REMARK    7  A    between atoms: _15  and  _17
REMARK    8  A    between atoms: _17  and  _18
REMARK    9  A    between atoms: _17  and  _20
REMARK   10  A    between atoms: _20  and  _21
REMARK   11  A    between atoms: _21  and  _22
REMARK   12  A    between atoms: _27  and  _29
REMARK   13  A    between atoms: _29  and  _30
REMARK   14  A    between atoms: _29  and  _32
REMARK   15  A    between atoms: _32  and  _33
REMARK   16  A    between atoms: _36  and  _38
REMARK   17  A    between atoms: _38  and  _39
REMARK   18  A    between atoms: _38  and  _41
REMARK   19  A    between atoms: _44  and  _46
REMARK   20  A    between atoms: _46  and  _47
REMARK   21  A    between atoms: _46  and  _49
REMARK   22  A    between atoms: _51  and  _53
REMARK   23  A    between atoms: _53  and  _54
REMARK   24  A    between atoms: _57  and  _59
REMARK   25  A    between atoms: _59  and  _60
REMARK   26  A    between atoms: _59  and  _62
REMARK   27  A    between atoms: _62  and  _63
REMARK   28  A    between atoms: _68  and  _70
REMARK   29  A    between atoms: _70  and  _71
REMARK   30  A    between atoms: _70  and  _73
REMARK   31  A    between atoms: _76  and  _78
REMARK   32  A    between atoms: _78  and  _79
REMARK   33  A    between atoms: _82  and  _84
REMARK   34  A    between atoms: _84  and  _85
REMARK   35  A    between atoms: _84  and  _87
REMARK   36  A    between atoms: _90  and  _92
REMARK   37  A    between atoms: _92  and  _93
REMARK   38  A    between atoms: _92  and  _95
REMARK   39  A    between atoms: _95  and  _96
REMARK   40  A    between atoms: _96  and  _97
REMARK   41  A    between atoms: _97  and  _98
REMARK   42  A    between atoms: _98  and  _99
REMARK   43  A    between atoms: _103  and  _105
REMARK   44  A    between atoms: _105  and  _106
REMARK   45  A    between atoms: _105  and  _108
REMARK   46  A    between atoms: _108  and  _109
REMARK   47  A    between atoms: _109  and  _110
REMARK   48  A    between atoms: _110  and  _111
REMARK   49  A    between atoms: _111  and  _112
REMARK   50  A    between atoms: _116  and  _118
REMARK   51  A    between atoms: _118  and  _119
REMARK   52  A    between atoms: _118  and  _121
REMARK   53  A    between atoms: _121  and  _122
REMARK   54  A    between atoms: _125  and  _127
REMARK   55  A    between atoms: _127  and  _128
REMARK   56  A    between atoms: _127  and  _130
REMARK   57  A    between atoms: _130  and  _131
REMARK   58  A    between atoms: _134  and  _136
REMARK   59  A    between atoms: _136  and  _137
REMARK   60  A    between atoms: _136  and  _139
REMARK   61  A    between atoms: _139  and  _140
REMARK   62  A    between atoms: _145  and  _147
REMARK   63  A    between atoms: _147  and  _148
REMARK   64  A    between atoms: _147  and  _150
REMARK   65  A    between atoms: _150  and  _151
REMARK   66  A    between atoms: _151  and  _152
REMARK   67  A    between atoms: _152  and  _153
REMARK   68  A    between atoms: _153  and  _154
REMARK   69  A    between atoms: _158  and  _160
REMARK   70  A    between atoms: _160  and  _161
REMARK   71  A    between atoms: _160  and  _163
REMARK   72  A    between atoms: _163  and  _164
REMARK   73  A    between atoms: _164  and  _165
REMARK   74  A    between atoms: _165  and  _166
REMARK   75  A    between atoms: _175  and  _177
REMARK   76  A    between atoms: _177  and  _178
REMARK   77  A    between atoms: _181  and  _183
REMARK   78  A    between atoms: _183  and  _184
REMARK   79  A    between atoms: _183  and  _186
REMARK   80  A    between atoms: _186  and  _187
REMARK   81  A    between atoms: _192  and  _193
REMARK   82  A    between atoms: _195  and  _197
REMARK   83  A    between atoms: _197  and  _198
REMARK   84  A    between atoms: _197  and  _200
REMARK   85  A    between atoms: _200  and  _201
REMARK   86  A    between atoms: _201  and  _202
REMARK   87  A    between atoms: _202  and  _203
REMARK   88  A    between atoms: _212  and  _214
REMARK   89  A    between atoms: _214  and  _215
REMARK   90  A    between atoms: _214  and  _217
REMARK   91  A    between atoms: _217  and  _218
REMARK   92  A    between atoms: _218  and  _219
REMARK   93  A    between atoms: _222  and  _224
REMARK   94  A    between atoms: _224  and  _225
REMARK   95  A    between atoms: _224  and  _227
REMARK   96  A    between atoms: _227  and  _228
REMARK   97  A    between atoms: _231  and  _233
REMARK   98  A    between atoms: _233  and  _234
REMARK   99  A    between atoms: _233  and  _236
REMARK  100  A    between atoms: _239  and  _241
REMARK  101  A    between atoms: _241  and  _242
REMARK  102  A    between atoms: _241  and  _244
REMARK  103  A    between atoms: _244  and  _245
REMARK  104  A    between atoms: _248  and  _250
REMARK  105  A    between atoms: _250  and  _251
REMARK  106  A    between atoms: _250  and  _253
REMARK  107  A    between atoms: _253  and  _254
REMARK  108  A    between atoms: _257  and  _259
REMARK  109  A    between atoms: _259  and  _260
REMARK  110  A    between atoms: _259  and  _262
REMARK  111  A    between atoms: _262  and  _263
REMARK  112  A    between atoms: _263  and  _264
REMARK  113  A    between atoms: _264  and  _265
REMARK  114  A    between atoms: _265  and  _266
REMARK  115  A    between atoms: _270  and  _272
REMARK  116  A    between atoms: _272  and  _273
REMARK  117  A    between atoms: _272  and  _275
REMARK  118  A    between atoms: _277  and  _279
REMARK  119  A    between atoms: _279  and  _280
REMARK  120  A    between atoms: _279  and  _282
REMARK  121  A    between atoms: _285  and  _287
REMARK  122  A    between atoms: _287  and  _288
REMARK  123  A    between atoms: _287  and  _290
REMARK  124  A    between atoms: _290  and  _291
REMARK  125  A    between atoms: _296  and  _298
REMARK  126  A    between atoms: _298  and  _299
REMARK  127  A    between atoms: _298  and  _301
REMARK  128  A    between atoms: _301  and  _302
REMARK  129  A    between atoms: _305  and  _307
REMARK  130  A    between atoms: _307  and  _308
REMARK  131  A    between atoms: _307  and  _310
REMARK  132  A    between atoms: _310  and  _311
REMARK  133  A    between atoms: _314  and  _316
REMARK  134  A    between atoms: _316  and  _317
REMARK  135  A    between atoms: _316  and  _319
REMARK  136  A    between atoms: _319  and  _320
REMARK  137  A    between atoms: _322  and  _324
REMARK  138  A    between atoms: _324  and  _325
REMARK  139  A    between atoms: _324  and  _327
REMARK  140  A    between atoms: _327  and  _328
REMARK  141  A    between atoms: _331  and  _333
REMARK  142  A    between atoms: _333  and  _334
REMARK  143  A    between atoms: _333  and  _336
REMARK  144  A    between atoms: _336  and  _337
REMARK  145  A    between atoms: _340  and  _342
REMARK  146  A    between atoms: _342  and  _343
REMARK  147  A    between atoms: _342  and  _345
REMARK  148  A    between atoms: _345  and  _346
REMARK  149  A    between atoms: _351  and  _353
REMARK  150  A    between atoms: _353  and  _354
REMARK  151  A    between atoms: _353  and  _356
REMARK  152  A    between atoms: _356  and  _357
REMARK  153  A    between atoms: _362  and  _363
REMARK  154  A    between atoms: _365  and  _367
REMARK  155  A    between atoms: _367  and  _368
REMARK  156  A    between atoms: _367  and  _370
REMARK  157  A    between atoms: _370  and  _371
REMARK  158  A    between atoms: _374  and  _376
REMARK  159  A    between atoms: _376  and  _377
REMARK  160  A    between atoms: _376  and  _379
REMARK  161  A    between atoms: _382  and  _384
REMARK  162  A    between atoms: _384  and  _385
REMARK  163  A    between atoms: _384  and  _387
REMARK  164  A    between atoms: _387  and  _388
REMARK  165  A    between atoms: _388  and  _389
REMARK  166  A    between atoms: _391  and  _393
REMARK  167  A    between atoms: _393  and  _394
REMARK  168  A    between atoms: _393  and  _396
REMARK  169  A    between atoms: _396  and  _397
REMARK  170  A    between atoms: _397  and  _398
REMARK  171  A    between atoms: _401  and  _403
REMARK  172  A    between atoms: _403  and  _404
REMARK  173  A    between atoms: _403  and  _406
REMARK  174  A    between atoms: _406  and  _407
REMARK  175  A    between atoms: _410  and  _412
REMARK  176  A    between atoms: _412  and  _413
REMARK  177  A    between atoms: _412  and  _415
REMARK  178  A    between atoms: _415  and  _416
REMARK  179  A    between atoms: _416  and  _417
REMARK  180  A    between atoms: _419  and  _421
REMARK  181  A    between atoms: _421  and  _422
REMARK  182  A    between atoms: _421  and  _424
REMARK  183  A    between atoms: _424  and  _425
REMARK  184  A    between atoms: _428  and  _430
REMARK  185  A    between atoms: _430  and  _431
REMARK  186  A    between atoms: _434  and  _436
REMARK  187  A    between atoms: _436  and  _437
REMARK  188  A    between atoms: _436  and  _439
REMARK  189  A    between atoms: _439  and  _440
REMARK  190  A    between atoms: _445  and  _447
REMARK  191  A    between atoms: _447  and  _448
REMARK  192  A    between atoms: _447  and  _450
REMARK  193  A    between atoms: _450  and  _451
REMARK  194  A    between atoms: _451  and  _452
REMARK  195  A    between atoms: _457  and  _459
REMARK  196  A    between atoms: _459  and  _460
REMARK  197  A    between atoms: _462  and  _464
REMARK  198  A    between atoms: _464  and  _465
REMARK  199  A    between atoms: _464  and  _467
REMARK  200  A    between atoms: _467  and  _468
REMARK  201  A    between atoms: _471  and  _473
REMARK  202  A    between atoms: _473  and  _474
REMARK  203  A    between atoms: _477  and  _479
REMARK  204  A    between atoms: _479  and  _480
REMARK  205  A    between atoms: _479  and  _482
REMARK  206  A    between atoms: _482  and  _483
REMARK  207  A    between atoms: _486  and  _488
REMARK  208  A    between atoms: _488  and  _489
REMARK  209  A    between atoms: _488  and  _491
REMARK  210  A    between atoms: _491  and  _492
REMARK  211  A    between atoms: _495  and  _497
REMARK  212  A    between atoms: _497  and  _498
REMARK  213  A    between atoms: _497  and  _500
REMARK  214  A    between atoms: _500  and  _501
REMARK  215  A    between atoms: _506  and  _508
REMARK  216  A    between atoms: _508  and  _509
REMARK  217  A    between atoms: _508  and  _511
REMARK  218  A    between atoms: _511  and  _512
REMARK  219  A    between atoms: _512  and  _513
REMARK  220  A    between atoms: _513  and  _514
REMARK  221  A    between atoms: _523  and  _525
REMARK  222  A    between atoms: _525  and  _526
REMARK  223  A    between atoms: _525  and  _528
REMARK  224  A    between atoms: _528  and  _529
REMARK  225  A    between atoms: _532  and  _534
REMARK  226  A    between atoms: _534  and  _535
REMARK  227  A    between atoms: _534  and  _537
REMARK  228  A    between atoms: _537  and  _538
REMARK  229  A    between atoms: _541  and  _543
REMARK  230  A    between atoms: _543  and  _544
REMARK  231  A    between atoms: _543  and  _546
REMARK  232  A    between atoms: _546  and  _547
REMARK  233  A    between atoms: _549  and  _551
REMARK  234  A    between atoms: _551  and  _552
REMARK  235  A    between atoms: _551  and  _554
REMARK  236  A    between atoms: _554  and  _555
REMARK  237  A    between atoms: _560  and  _562
REMARK  238  A    between atoms: _562  and  _563
REMARK  239  A    between atoms: _562  and  _565
REMARK  240  A    between atoms: _565  and  _566
REMARK  241  A    between atoms: _569  and  _571
REMARK  242  A    between atoms: _571  and  _572
REMARK  243  A    between atoms: _571  and  _574
REMARK  244  A    between atoms: _577  and  _579
REMARK  245  A    between atoms: _579  and  _580
REMARK  246  A    between atoms: _579  and  _582
REMARK  247  A    between atoms: _585  and  _587
REMARK  248  A    between atoms: _587  and  _588
REMARK  249  A    between atoms: _587  and  _590
REMARK  250  A    between atoms: _590  and  _591
REMARK  251  A    between atoms: _591  and  _592
REMARK  252  A    between atoms: _592  and  _593
REMARK  253  A    between atoms: _593  and  _594
REMARK  254  A    between atoms: _598  and  _600
REMARK  255  A    between atoms: _600  and  _601
REMARK  256  A    between atoms: _600  and  _603
REMARK  257  A    between atoms: _603  and  _604
REMARK  258  A    between atoms: _604  and  _605
REMARK  259  A    between atoms: _605  and  _606
REMARK  260  A    between atoms: _606  and  _607
REMARK  261  A    between atoms: _611  and  _613
REMARK  262  A    between atoms: _613  and  _614
REMARK  263  A    between atoms: _613  and  _616
REMARK  264  A    between atoms: _616  and  _617
REMARK  265  A    between atoms: _620  and  _622
REMARK  266  A    between atoms: _622  and  _623
REMARK  267  A    between atoms: _622  and  _625
REMARK  268  A    between atoms: _625  and  _626
REMARK  269  A    between atoms: _629  and  _631
REMARK  270  A    between atoms: _631  and  _632
REMARK  271  A    between atoms: _631  and  _634
REMARK  272  A    between atoms: _634  and  _635
REMARK  273  A    between atoms: _638  and  _640
REMARK  274  A    between atoms: _640  and  _641
REMARK  275  A    between atoms: _640  and  _643
REMARK  276  A    between atoms: _643  and  _644
REMARK  277  A    between atoms: _650  and  _652
REMARK  278  A    between atoms: _652  and  _653
REMARK  279  A    between atoms: _655  and  _657
REMARK  280  A    between atoms: _657  and  _658
REMARK  281  A    between atoms: _657  and  _660
REMARK  282  A    between atoms: _660  and  _661
REMARK  283  A    between atoms: _664  and  _666
REMARK  284  A    between atoms: _666  and  _667
REMARK  285  A    between atoms: _670  and  _672
REMARK  286  A    between atoms: _672  and  _673
REMARK  287  A    between atoms: _672  and  _675
REMARK  288  A    between atoms: _675  and  _676
REMARK  289  A    between atoms: _676  and  _677
REMARK  290  A    between atoms: _679  and  _681
REMARK  291  A    between atoms: _681  and  _682
REMARK  292  A    between atoms: _681  and  _684
REMARK  293  A    between atoms: _684  and  _685
REMARK  294  A    between atoms: _685  and  _686
REMARK  295  A    between atoms: _688  and  _690
REMARK  296  A    between atoms: _690  and  _691
REMARK  297  A    between atoms: _690  and  _693
REMARK  298  A    between atoms: _693  and  _694
REMARK  299  A    between atoms: _697  and  _699
REMARK  300  A    between atoms: _699  and  _700
REMARK  301  A    between atoms: _699  and  _702
REMARK  302  A    between atoms: _702  and  _703
REMARK  303  A    between atoms: _706  and  _708
REMARK  304  A    between atoms: _708  and  _709
REMARK  305  A    between atoms: _708  and  _711
REMARK  306  A    between atoms: _711  and  _712
REMARK  307  A    between atoms: _712  and  _713
REMARK                            x       y       z     vdW  Elec       q    Type
REMARK                         _______ _______ _______ _____ _____    ______ ____
ROOT
ATOM      1  O   HOH     1      47.806  57.210  17.741  0.00  0.00    +0.000 OA
ENDROOT
TORSDOF 0
REMARK  Name = ../refined-set-2016/3npc/3npc_pocket.pdb
REMARK  307 active torsions:
REMARK  status: ('A' for Active; 'I' for Inactive)
REMARK    1  A    between atoms: _1  and  _3
REMARK    2  A    between atoms: _3  and  _4
REMARK    3  A    between atoms: _3  and  _6
REMARK    4  A    between atoms: _6  and  _7
REMARK    5  A    between atoms: _10  and  _12
REMARK    6  A    between atoms: _12  and  _13
REMARK    7  A    between atoms: _15  and  _17
REMARK    8  A    between atoms: _17  and  _18
REMARK    9  A    between atoms: _17  and  _20
REMARK   10  A    between atoms: _20  and  _21
REMARK   11  A    between atoms: _21  and  _22
REMARK   12  A    between atoms: _27  and  _29
REMARK   13  A    between atoms: _29  and  _30
REMARK   14  A    between atoms: _29  and  _32
REMARK   15  A    between atoms: _32  and  _33
REMARK   16  A    between atoms: _36  and  _38
REMARK   17  A    between atoms: _38  and  _39
REMARK   18  A    between atoms: _38  and  _41
REMARK   19  A    between atoms: _44  and  _46
REMARK   20  A    between atoms: _46  and  _47
REMARK   21  A    between atoms: _46  and  _49
REMARK   22  A    between atoms: _51  and  _53
REMARK   23  A    between atoms: _53  and  _54
REMARK   24  A    between atoms: _57  and  _59
REMARK   25  A    between atoms: _59  and  _60
REMARK   26  A    between atoms: _59  and  _62
REMARK   27  A    between atoms: _62  and  _63
REMARK   28  A    between atoms: _68  and  _70
REMARK   29  A    between atoms: _70  and  _71
REMARK   30  A    between atoms: _70  and  _73
REMARK   31  A    between atoms: _76  and  _78
REMARK   32  A    between atoms: _78  and  _79
REMARK   33  A    between atoms: _82  and  _84
REMARK   34  A    between atoms: _84  and  _85
REMARK   35  A    between atoms: _84  and  _87
REMARK   36  A    between atoms: _90  and  _92
REMARK   37  A    between atoms: _92  and  _93
REMARK   38  A    between atoms: _92  and  _95
REMARK   39  A    between atoms: _95  and  _96
REMARK   40  A    between atoms: _96  and  _97
REMARK   41  A    between atoms: _97  and  _98
REMARK   42  A    between atoms: _98  and  _99
REMARK   43  A    between atoms: _103  and  _105
REMARK   44  A    between atoms: _105  and  _106
REMARK   45  A    between atoms: _105  and  _108
REMARK   46  A    between atoms: _108  and  _109
REMARK   47  A    between atoms: _109  and  _110
REMARK   48  A    between atoms: _110  and  _111
REMARK   49  A    between atoms: _111  and  _112
REMARK   50  A    between atoms: _116  and  _118
REMARK   51  A    between atoms: _118  and  _119
REMARK   52  A    between atoms: _118  and  _121
REMARK   53  A    between atoms: _121  and  _122
REMARK   54  A    between atoms: _125  and  _127
REMARK   55  A    between atoms: _127  and  _128
REMARK   56  A    between atoms: _127  and  _130
REMARK   57  A    between atoms: _130  and  _131
REMARK   58  A    between atoms: _134  and  _136
REMARK   59  A    between atoms: _136  and  _137
REMARK   60  A    between atoms: _136  and  _139
REMARK   61  A    between atoms: _139  and  _140
REMARK   62  A    between atoms: _145  and  _147
REMARK   63  A    between atoms: _147  and  _148
REMARK   64  A    between atoms: _147  and  _150
REMARK   65  A    between atoms: _150  and  _151
REMARK   66  A    between atoms: _151  and  _152
REMARK   67  A    between atoms: _152  and  _153
REMARK   68  A    between atoms: _153  and  _154
REMARK   69  A    between atoms: _158  and  _160
REMARK   70  A    between atoms: _160  and  _161
REMARK   71  A    between atoms: _160  and  _163
REMARK   72  A    between atoms: _163  and  _164
REMARK   73  A    between atoms: _164  and  _165
REMARK   74  A    between atoms: _165  and  _166
REMARK   75  A    between atoms: _175  and  _177
REMARK   76  A    between atoms: _177  and  _178
REMARK   77  A    between atoms: _181  and  _183
REMARK   78  A    between atoms: _183  and  _184
REMARK   79  A    between atoms: _183  and  _186
REMARK   80  A    between atoms: _186  and  _187
REMARK   81  A    between atoms: _192  and  _193
REMARK   82  A    between atoms: _195  and  _197
REMARK   83  A    between atoms: _197  and  _198
REMARK   84  A    between atoms: _197  and  _200
REMARK   85  A    between atoms: _200  and  _201
REMARK   86  A    between atoms: _201  and  _202
REMARK   87  A    between atoms: _202  and  _203
REMARK   88  A    between atoms: _212  and  _214
REMARK   89  A    between atoms: _214  and  _215
REMARK   90  A    between atoms: _214  and  _217
REMARK   91  A    between atoms: _217  and  _218
REMARK   92  A    between atoms: _218  and  _219
REMARK   93  A    between atoms: _222  and  _224
REMARK   94  A    between atoms: _224  and  _225
REMARK   95  A    between atoms: _224  and  _227
REMARK   96  A    between atoms: _227  and  _228
REMARK   97  A    between atoms: _231  and  _233
REMARK   98  A    between atoms: _233  and  _234
REMARK   99  A    between atoms: _233  and  _236
REMARK  100  A    between atoms: _239  and  _241
REMARK  101  A    between atoms: _241  and  _242
REMARK  102  A    between atoms: _241  and  _244
REMARK  103  A    between atoms: _244  and  _245
REMARK  104  A    between atoms: _248  and  _250
REMARK  105  A    between atoms: _250  and  _251
REMARK  106  A    between atoms: _250  and  _253
REMARK  107  A    between atoms: _253  and  _254
REMARK  108  A    between atoms: _257  and  _259
REMARK  109  A    between atoms: _259  and  _260
REMARK  110  A    between atoms: _259  and  _262
REMARK  111  A    between atoms: _262  and  _263
REMARK  112  A    between atoms: _263  and  _264
REMARK  113  A    between atoms: _264  and  _265
REMARK  114  A    between atoms: _265  and  _266
REMARK  115  A    between atoms: _270  and  _272
REMARK  116  A    between atoms: _272  and  _273
REMARK  117  A    between atoms: _272  and  _275
REMARK  118  A    between atoms: _277  and  _279
REMARK  119  A    between atoms: _279  and  _280
REMARK  120  A    between atoms: _279  and  _282
REMARK  121  A    between atoms: _285  and  _287
REMARK  122  A    between atoms: _287  and  _288
REMARK  123  A    between atoms: _287  and  _290
REMARK  124  A    between atoms: _290  and  _291
REMARK  125  A    between atoms: _296  and  _298
REMARK  126  A    between atoms: _298  and  _299
REMARK  127  A    between atoms: _298  and  _301
REMARK  128  A    between atoms: _301  and  _302
REMARK  129  A    between atoms: _305  and  _307
REMARK  130  A    between atoms: _307  and  _308
REMARK  131  A    between atoms: _307  and  _310
REMARK  132  A    between atoms: _310  and  _311
REMARK  133  A    between atoms: _314  and  _316
REMARK  134  A    between atoms: _316  and  _317
REMARK  135  A    between atoms: _316  and  _319
REMARK  136  A    between atoms: _319  and  _320
REMARK  137  A    between atoms: _322  and  _324
REMARK  138  A    between atoms: _324  and  _325
REMARK  139  A    between atoms: _324  and  _327
REMARK  140  A    between atoms: _327  and  _328
REMARK  141  A    between atoms: _331  and  _333
REMARK  142  A    between atoms: _333  and  _334
REMARK  143  A    between atoms: _333  and  _336
REMARK  144  A    between atoms: _336  and  _337
REMARK  145  A    between atoms: _340  and  _342
REMARK  146  A    between atoms: _342  and  _343
REMARK  147  A    between atoms: _342  and  _345
REMARK  148  A    between atoms: _345  and  _346
REMARK  149  A    between atoms: _351  and  _353
REMARK  150  A    between atoms: _353  and  _354
REMARK  151  A    between atoms: _353  and  _356
REMARK  152  A    between atoms: _356  and  _357
REMARK  153  A    between atoms: _362  and  _363
REMARK  154  A    between atoms: _365  and  _367
REMARK  155  A    between atoms: _367  and  _368
REMARK  156  A    between atoms: _367  and  _370
REMARK  157  A    between atoms: _370  and  _371
REMARK  158  A    between atoms: _374  and  _376
REMARK  159  A    between atoms: _376  and  _377
REMARK  160  A    between atoms: _376  and  _379
REMARK  161  A    between atoms: _382  and  _384
REMARK  162  A    between atoms: _384  and  _385
REMARK  163  A    between atoms: _384  and  _387
REMARK  164  A    between atoms: _387  and  _388
REMARK  165  A    between atoms: _388  and  _389
REMARK  166  A    between atoms: _391  and  _393
REMARK  167  A    between atoms: _393  and  _394
REMARK  168  A    between atoms: _393  and  _396
REMARK  169  A    between atoms: _396  and  _397
REMARK  170  A    between atoms: _397  and  _398
REMARK  171  A    between atoms: _401  and  _403
REMARK  172  A    between atoms: _403  and  _404
REMARK  173  A    between atoms: _403  and  _406
REMARK  174  A    between atoms: _406  and  _407
REMARK  175  A    between atoms: _410  and  _412
REMARK  176  A    between atoms: _412  and  _413
REMARK  177  A    between atoms: _412  and  _415
REMARK  178  A    between atoms: _415  and  _416
REMARK  179  A    between atoms: _416  and  _417
REMARK  180  A    between atoms: _419  and  _421
REMARK  181  A    between atoms: _421  and  _422
REMARK  182  A    between atoms: _421  and  _424
REMARK  183  A    between atoms: _424  and  _425
REMARK  184  A    between atoms: _428  and  _430
REMARK  185  A    between atoms: _430  and  _431
REMARK  186  A    between atoms: _434  and  _436
REMARK  187  A    between atoms: _436  and  _437
REMARK  188  A    between atoms: _436  and  _439
REMARK  189  A    between atoms: _439  and  _440
REMARK  190  A    between atoms: _445  and  _447
REMARK  191  A    between atoms: _447  and  _448
REMARK  192  A    between atoms: _447  and  _450
REMARK  193  A    between atoms: _450  and  _451
REMARK  194  A    between atoms: _451  and  _452
REMARK  195  A    between atoms: _457  and  _459
REMARK  196  A    between atoms: _459  and  _460
REMARK  197  A    between atoms: _462  and  _464
REMARK  198  A    between atoms: _464  and  _465
REMARK  199  A    between atoms: _464  and  _467
REMARK  200  A    between atoms: _467  and  _468
REMARK  201  A    between atoms: _471  and  _473
REMARK  202  A    between atoms: _473  and  _474
REMARK  203  A    between atoms: _477  and  _479
REMARK  204  A    between atoms: _479  and  _480
REMARK  205  A    between atoms: _479  and  _482
REMARK  206  A    between atoms: _482  and  _483
REMARK  207  A    between atoms: _486  and  _488
REMARK  208  A    between atoms: _488  and  _489
REMARK  209  A    between atoms: _488  and  _491
REMARK  210  A    between atoms: _491  and  _492
REMARK  211  A    between atoms: _495  and  _497
REMARK  212  A    between atoms: _497  and  _498
REMARK  213  A    between atoms: _497  and  _500
REMARK  214  A    between atoms: _500  and  _501
REMARK  215  A    between atoms: _506  and  _508
REMARK  216  A    between atoms: _508  and  _509
REMARK  217  A    between atoms: _508  and  _511
REMARK  218  A    between atoms: _511  and  _512
REMARK  219  A    between atoms: _512  and  _513
REMARK  220  A    between atoms: _513  and  _514
REMARK  221  A    between atoms: _523  and  _525
REMARK  222  A    between atoms: _525  and  _526
REMARK  223  A    between atoms: _525  and  _528
REMARK  224  A    between atoms: _528  and  _529
REMARK  225  A    between atoms: _532  and  _534
REMARK  226  A    between atoms: _534  and  _535
REMARK  227  A    between atoms: _534  and  _537
REMARK  228  A    between atoms: _537  and  _538
REMARK  229  A    between atoms: _541  and  _543
REMARK  230  A    between atoms: _543  and  _544
REMARK  231  A    between atoms: _543  and  _546
REMARK  232  A    between atoms: _546  and  _547
REMARK  233  A    between atoms: _549  and  _551
REMARK  234  A    between atoms: _551  and  _552
REMARK  235  A    between atoms: _551  and  _554
REMARK  236  A    between atoms: _554  and  _555
REMARK  237  A    between atoms: _560  and  _562
REMARK  238  A    between atoms: _562  and  _563
REMARK  239  A    between atoms: _562  and  _565
REMARK  240  A    between atoms: _565  and  _566
REMARK  241  A    between atoms: _569  and  _571
REMARK  242  A    between atoms: _571  and  _572
REMARK  243  A    between atoms: _571  and  _574
REMARK  244  A    between atoms: _577  and  _579
REMARK  245  A    between atoms: _579  and  _580
REMARK  246  A    between atoms: _579  and  _582
REMARK  247  A    between atoms: _585  and  _587
REMARK  248  A    between atoms: _587  and  _588
REMARK  249  A    between atoms: _587  and  _590
REMARK  250  A    between atoms: _590  and  _591
REMARK  251  A    between atoms: _591  and  _592
REMARK  252  A    between atoms: _592  and  _593
REMARK  253  A    between atoms: _593  and  _594
REMARK  254  A    between atoms: _598  and  _600
REMARK  255  A    between atoms: _600  and  _601
REMARK  256  A    between atoms: _600  and  _603
REMARK  257  A    between atoms: _603  and  _604
REMARK  258  A    between atoms: _604  and  _605
REMARK  259  A    between atoms: _605  and  _606
REMARK  260  A    between atoms: _606  and  _607
REMARK  261  A    between atoms: _611  and  _613
REMARK  262  A    between atoms: _613  and  _614
REMARK  263  A    between atoms: _613  and  _616
REMARK  264  A    between atoms: _616  and  _617
REMARK  265  A    between atoms: _620  and  _622
REMARK  266  A    between atoms: _622  and  _623
REMARK  267  A    between atoms: _622  and  _625
REMARK  268  A    between atoms: _625  and  _626
REMARK  269  A    between atoms: _629  and  _631
REMARK  270  A    between atoms: _631  and  _632
REMARK  271  A    between atoms: _631  and  _634
REMARK  272  A    between atoms: _634  and  _635
REMARK  273  A    between atoms: _638  and  _640
REMARK  274  A    between atoms: _640  and  _641
REMARK  275  A    between atoms: _640  and  _643
REMARK  276  A    between atoms: _643  and  _644
REMARK  277  A    between atoms: _650  and  _652
REMARK  278  A    between atoms: _652  and  _653
REMARK  279  A    between atoms: _655  and  _657
REMARK  280  A    between atoms: _657  and  _658
REMARK  281  A    between atoms: _657  and  _660
REMARK  282  A    between atoms: _660  and  _661
REMARK  283  A    between atoms: _664  and  _666
REMARK  284  A    between atoms: _666  and  _667
REMARK  285  A    between atoms: _670  and  _672
REMARK  286  A    between atoms: _672  and  _673
REMARK  287  A    between atoms: _672  and  _675
REMARK  288  A    between atoms: _675  and  _676
REMARK  289  A    between atoms: _676  and  _677
REMARK  290  A    between atoms: _679  and  _681
REMARK  291  A    between atoms: _681  and  _682
REMARK  292  A    between atoms: _681  and  _684
REMARK  293  A    between atoms: _684  and  _685
REMARK  294  A    between atoms: _685  and  _686
REMARK  295  A    between atoms: _688  and  _690
REMARK  296  A    between atoms: _690  and  _691
REMARK  297  A    between atoms: _690  and  _693
REMARK  298  A    between atoms: _693  and  _694
REMARK  299  A    between atoms: _697  and  _699
REMARK  300  A    between atoms: _699  and  _700
REMARK  301  A    between atoms: _699  and  _702
REMARK  302  A    between atoms: _702  and  _703
REMARK  303  A    between atoms: _706  and  _708
REMARK  304  A    between atoms: _708  and  _709
REMARK  305  A    between atoms: _708  and  _711
REMARK  306  A    between atoms: _711  and  _712
REMARK  307  A    between atoms: _712  and  _713
REMARK                            x       y       z     vdW  Elec       q    Type
REMARK                         _______ _______ _______ _____ _____    ______ ____
ROOT
ATOM      1  O   HOH     1      53.450  40.582  11.854  0.00  0.00    +0.000 OA
ENDROOT
TORSDOF 0
