REMARK  Name = ../refined-set-2016/3oku/3oku_pocket.pdb
REMARK  163 active torsions:
REMARK  status: ('A' for Active; 'I' for Inactive)
REMARK    1  A    between atoms: _1  and  _3
REMARK    2  A    between atoms: _3  and  _4
REMARK    3  A    between atoms: _3  and  _6
REMARK    4  A    between atoms: _6  and  _7
REMARK    5  A    between atoms: _17  and  _19
REMARK    6  A    between atoms: _19  and  _20
REMARK    7  A    between atoms: _19  and  _22
REMARK    8  A    between atoms: _22  and  _23
REMARK    9  A    between atoms: _28  and  _29
REMARK   10  A    between atoms: _31  and  _33
REMARK   11  A    between atoms: _33  and  _34
REMARK   12  A    between atoms: _33  and  _36
REMARK   13  A    between atoms: _36  and  _37
REMARK   14  A    between atoms: _43  and  _45
REMARK   15  A    between atoms: _45  and  _46
REMARK   16  A    between atoms: _45  and  _48
REMARK   17  A    between atoms: _48  and  _49
REMARK   18  A    between atoms: _52  and  _53
REMARK   19  A    between atoms: _58  and  _60
REMARK   20  A    between atoms: _60  and  _61
REMARK   21  A    between atoms: _60  and  _63
REMARK   22  A    between atoms: _63  and  _64
REMARK   23  A    between atoms: _69  and  _71
REMARK   24  A    between atoms: _71  and  _72
REMARK   25  A    between atoms: _71  and  _74
REMARK   26  A    between atoms: _74  and  _75
REMARK   27  A    between atoms: _80  and  _82
REMARK   28  A    between atoms: _82  and  _83
REMARK   29  A    between atoms: _86  and  _88
REMARK   30  A    between atoms: _88  and  _89
REMARK   31  A    between atoms: _88  and  _91
REMARK   32  A    between atoms: _91  and  _92
REMARK   33  A    between atoms: _97  and  _99
REMARK   34  A    between atoms: _99  and  _100
REMARK   35  A    between atoms: _99  and  _102
REMARK   36  A    between atoms: _102  and  _103
REMARK   37  A    between atoms: _106  and  _108
REMARK   38  A    between atoms: _108  and  _109
REMARK   39  A    between atoms: _108  and  _111
REMARK   40  A    between atoms: _111  and  _112
REMARK   41  A    between atoms: _112  and  _113
REMARK   42  A    between atoms: _118  and  _120
REMARK   43  A    between atoms: _120  and  _121
REMARK   44  A    between atoms: _120  and  _123
REMARK   45  A    between atoms: _123  and  _124
REMARK   46  A    between atoms: _130  and  _132
REMARK   47  A    between atoms: _143  and  _146
REMARK   48  A    between atoms: _146  and  _147
REMARK   49  A    between atoms: _155  and  _156
REMARK   50  A    between atoms: _164  and  _166
REMARK   51  A    between atoms: _166  and  _167
REMARK   52  A    between atoms: _166  and  _169
REMARK   53  A    between atoms: _169  and  _170
REMARK   54  A    between atoms: _170  and  _171
REMARK   55  A    between atoms: _174  and  _176
REMARK   56  A    between atoms: _176  and  _177
REMARK   57  A    between atoms: _176  and  _179
REMARK   58  A    between atoms: _179  and  _180
REMARK   59  A    between atoms: _185  and  _187
REMARK   60  A    between atoms: _187  and  _188
REMARK   61  A    between atoms: _187  and  _190
REMARK   62  A    between atoms: _190  and  _191
REMARK   63  A    between atoms: _191  and  _192
REMARK   64  A    between atoms: _195  and  _197
REMARK   65  A    between atoms: _197  and  _198
REMARK   66  A    between atoms: _197  and  _200
REMARK   67  A    between atoms: _200  and  _201
REMARK   68  A    between atoms: _204  and  _206
REMARK   69  A    between atoms: _206  and  _207
REMARK   70  A    between atoms: _206  and  _209
REMARK   71  A    between atoms: _209  and  _210
REMARK   72  A    between atoms: _211  and  ZN_451
REMARK   73  A    between atoms: _215  and  _217
REMARK   74  A    between atoms: _217  and  _218
REMARK   75  A    between atoms: _217  and  _220
REMARK   76  A    between atoms: _220  and  _221
REMARK   77  A    between atoms: _224  and  _226
REMARK   78  A    between atoms: _226  and  _227
REMARK   79  A    between atoms: _226  and  _229
REMARK   80  A    between atoms: _232  and  _234
REMARK   81  A    between atoms: _234  and  _235
REMARK   82  A    between atoms: _234  and  _237
REMARK   83  A    between atoms: _237  and  _238
REMARK   84  A    between atoms: _243  and  _245
REMARK   85  A    between atoms: _245  and  _246
REMARK   86  A    between atoms: _245  and  _248
REMARK   87  A    between atoms: _248  and  _249
REMARK   88  A    between atoms: _255  and  _257
REMARK   89  A    between atoms: _257  and  _258
REMARK   90  A    between atoms: _260  and  _262
REMARK   91  A    between atoms: _262  and  _263
REMARK   92  A    between atoms: _262  and  _265
REMARK   93  A    between atoms: _265  and  _266
REMARK   94  A    between atoms: _266  and  _267
REMARK   95  A    between atoms: _267  and  _268
REMARK   96  A    between atoms: _268  and  _269
REMARK   97  A    between atoms: _273  and  _275
REMARK   98  A    between atoms: _275  and  _276
REMARK   99  A    between atoms: _275  and  _278
REMARK  100  A    between atoms: _281  and  _283
REMARK  101  A    between atoms: _283  and  _284
REMARK  102  A    between atoms: _283  and  _286
REMARK  103  A    between atoms: _286  and  _287
REMARK  104  A    between atoms: _287  and  _288
REMARK  105  A    between atoms: _293  and  _295
REMARK  106  A    between atoms: _295  and  _296
REMARK  107  A    between atoms: _295  and  _298
REMARK  108  A    between atoms: _298  and  _299
REMARK  109  A    between atoms: _302  and  _304
REMARK  110  A    between atoms: _304  and  _305
REMARK  111  A    between atoms: _308  and  _310
REMARK  112  A    between atoms: _310  and  _311
REMARK  113  A    between atoms: _310  and  _313
REMARK  114  A    between atoms: _316  and  _318
REMARK  115  A    between atoms: _318  and  _319
REMARK  116  A    between atoms: _318  and  _321
REMARK  117  A    between atoms: _321  and  _322
REMARK  118  A    between atoms: _325  and  _327
REMARK  119  A    between atoms: _327  and  _328
REMARK  120  A    between atoms: _327  and  _330
REMARK  121  A    between atoms: _330  and  _331
REMARK  122  A    between atoms: _333  and  _335
REMARK  123  A    between atoms: _335  and  _336
REMARK  124  A    between atoms: _335  and  _338
REMARK  125  A    between atoms: _338  and  _339
REMARK  126  A    between atoms: _342  and  _344
REMARK  127  A    between atoms: _344  and  _345
REMARK  128  A    between atoms: _344  and  _347
REMARK  129  A    between atoms: _347  and  _348
REMARK  130  A    between atoms: _351  and  _353
REMARK  131  A    between atoms: _353  and  _354
REMARK  132  A    between atoms: _353  and  _356
REMARK  133  A    between atoms: _356  and  _357
REMARK  134  A    between atoms: _361  and  _362
REMARK  135  A    between atoms: _368  and  _369
REMARK  136  A    between atoms: _374  and  _376
REMARK  137  A    between atoms: _376  and  _377
REMARK  138  A    between atoms: _376  and  _379
REMARK  139  A    between atoms: _379  and  _380
REMARK  140  A    between atoms: _383  and  _385
REMARK  141  A    between atoms: _385  and  _386
REMARK  142  A    between atoms: _385  and  _388
REMARK  143  A    between atoms: _388  and  _389
REMARK  144  A    between atoms: _392  and  _394
REMARK  145  A    between atoms: _394  and  _395
REMARK  146  A    between atoms: _394  and  _397
REMARK  147  A    between atoms: _399  and  _401
REMARK  148  A    between atoms: _401  and  _402
REMARK  149  A    between atoms: _401  and  _404
REMARK  150  A    between atoms: _407  and  _409
REMARK  151  A    between atoms: _409  and  _410
REMARK  152  A    between atoms: _409  and  _412
REMARK  153  A    between atoms: _412  and  _413
REMARK  154  A    between atoms: _423  and  _425
REMARK  155  A    between atoms: _425  and  _426
REMARK  156  A    between atoms: _425  and  _428
REMARK  157  A    between atoms: _428  and  _429
REMARK  158  A    between atoms: _434  and  _436
REMARK  159  A    between atoms: _436  and  _437
REMARK  160  A    between atoms: _436  and  _439
REMARK  161  A    between atoms: _439  and  _440
REMARK  162  A    between atoms: _440  and  _441
REMARK  163  A    between atoms: _441  and  _442
REMARK                            x       y       z     vdW  Elec       q    Type
REMARK                         _______ _______ _______ _____ _____    ______ ____
ROOT
ATOM      1  CG  TRP A   1       6.048  -0.040  12.151  0.00  0.00    -0.002 A 
ATOM      2  CD2 TRP A   1       4.697  -0.502  12.044  0.00  0.00    +0.013 A 
ATOM      3  CE3 TRP A   1       4.078  -1.741  12.244  0.00  0.00    +0.001 A 
ATOM      4  CZ3 TRP A   1       2.712  -1.835  12.059  0.00  0.00    +0.000 A 
ATOM      5  CH2 TRP A   1       1.962  -0.732  11.671  0.00  0.00    +0.001 A 
ATOM      6  CZ2 TRP A   1       2.525   0.497  11.485  0.00  0.00    +0.017 A 
ATOM      7  CE2 TRP A   1       3.906   0.604  11.657  0.00  0.00    +0.056 A 
ATOM      8  NE1 TRP A   1       4.733   1.693  11.546  0.00  0.00    -0.352 N 
ATOM      9  HE1 TRP A   1       4.436   2.654  11.281  0.00  0.00    +0.166 HD
ATOM     10  CD1 TRP A   1       6.023   1.305  11.843  0.00  0.00    +0.068 A 
ENDROOT
BRANCH   1  11
ATOM     11  CB  TRP A   1       7.244  -0.873  12.534  0.00  0.00    +0.053 C 
BRANCH  11  12
ATOM     12  CA  TRP A   1       7.941  -1.578  11.357  0.00  0.00    +0.137 C 
BRANCH  12  13
ATOM     13  N   TRP A   1       8.661  -0.618  10.558  0.00  0.00    -0.239 NA
ATOM     14  H   TRP A   1       8.532   0.395  10.752  0.00  0.00    +0.142 HD
ENDBRANCH  12  13
BRANCH  12  15
ATOM     15  C   TRP A   1       6.939  -2.365  10.524  0.00  0.00    +0.224 C 
ATOM     16  O   TRP A   1       6.424  -1.893   9.502  0.00  0.00    -0.287 OA
ENDBRANCH  12  15
ENDBRANCH  11  12
ENDBRANCH   1  11
TORSDOF 4
REMARK  Name = ../refined-set-2016/3oku/3oku_pocket.pdb
REMARK  163 active torsions:
REMARK  status: ('A' for Active; 'I' for Inactive)
REMARK    1  A    between atoms: _1  and  _3
REMARK    2  A    between atoms: _3  and  _4
REMARK    3  A    between atoms: _3  and  _6
REMARK    4  A    between atoms: _6  and  _7
REMARK    5  A    between atoms: _17  and  _19
REMARK    6  A    between atoms: _19  and  _20
REMARK    7  A    between atoms: _19  and  _22
REMARK    8  A    between atoms: _22  and  _23
REMARK    9  A    between atoms: _28  and  _29
REMARK   10  A    between atoms: _31  and  _33
REMARK   11  A    between atoms: _33  and  _34
REMARK   12  A    between atoms: _33  and  _36
REMARK   13  A    between atoms: _36  and  _37
REMARK   14  A    between atoms: _43  and  _45
REMARK   15  A    between atoms: _45  and  _46
REMARK   16  A    between atoms: _45  and  _48
REMARK   17  A    between atoms: _48  and  _49
REMARK   18  A    between atoms: _52  and  _53
REMARK   19  A    between atoms: _58  and  _60
REMARK   20  A    between atoms: _60  and  _61
REMARK   21  A    between atoms: _60  and  _63
REMARK   22  A    between atoms: _63  and  _64
REMARK   23  A    between atoms: _69  and  _71
REMARK   24  A    between atoms: _71  and  _72
REMARK   25  A    between atoms: _71  and  _74
REMARK   26  A    between atoms: _74  and  _75
REMARK   27  A    between atoms: _80  and  _82
REMARK   28  A    between atoms: _82  and  _83
REMARK   29  A    between atoms: _86  and  _88
REMARK   30  A    between atoms: _88  and  _89
REMARK   31  A    between atoms: _88  and  _91
REMARK   32  A    between atoms: _91  and  _92
REMARK   33  A    between atoms: _97  and  _99
REMARK   34  A    between atoms: _99  and  _100
REMARK   35  A    between atoms: _99  and  _102
REMARK   36  A    between atoms: _102  and  _103
REMARK   37  A    between atoms: _106  and  _108
REMARK   38  A    between atoms: _108  and  _109
REMARK   39  A    between atoms: _108  and  _111
REMARK   40  A    between atoms: _111  and  _112
REMARK   41  A    between atoms: _112  and  _113
REMARK   42  A    between atoms: _118  and  _120
REMARK   43  A    between atoms: _120  and  _121
REMARK   44  A    between atoms: _120  and  _123
REMARK   45  A    between atoms: _123  and  _124
REMARK   46  A    between atoms: _130  and  _132
REMARK   47  A    between atoms: _143  and  _146
REMARK   48  A    between atoms: _146  and  _147
REMARK   49  A    between atoms: _155  and  _156
REMARK   50  A    between atoms: _164  and  _166
REMARK   51  A    between atoms: _166  and  _167
REMARK   52  A    between atoms: _166  and  _169
REMARK   53  A    between atoms: _169  and  _170
REMARK   54  A    between atoms: _170  and  _171
REMARK   55  A    between atoms: _174  and  _176
REMARK   56  A    between atoms: _176  and  _177
REMARK   57  A    between atoms: _176  and  _179
REMARK   58  A    between atoms: _179  and  _180
REMARK   59  A    between atoms: _185  and  _187
REMARK   60  A    between atoms: _187  and  _188
REMARK   61  A    between atoms: _187  and  _190
REMARK   62  A    between atoms: _190  and  _191
REMARK   63  A    between atoms: _191  and  _192
REMARK   64  A    between atoms: _195  and  _197
REMARK   65  A    between atoms: _197  and  _198
REMARK   66  A    between atoms: _197  and  _200
REMARK   67  A    between atoms: _200  and  _201
REMARK   68  A    between atoms: _204  and  _206
REMARK   69  A    between atoms: _206  and  _207
REMARK   70  A    between atoms: _206  and  _209
REMARK   71  A    between atoms: _209  and  _210
REMARK   72  A    between atoms: _211  and  ZN_451
REMARK   73  A    between atoms: _215  and  _217
REMARK   74  A    between atoms: _217  and  _218
REMARK   75  A    between atoms: _217  and  _220
REMARK   76  A    between atoms: _220  and  _221
REMARK   77  A    between atoms: _224  and  _226
REMARK   78  A    between atoms: _226  and  _227
REMARK   79  A    between atoms: _226  and  _229
REMARK   80  A    between atoms: _232  and  _234
REMARK   81  A    between atoms: _234  and  _235
REMARK   82  A    between atoms: _234  and  _237
REMARK   83  A    between atoms: _237  and  _238
REMARK   84  A    between atoms: _243  and  _245
REMARK   85  A    between atoms: _245  and  _246
REMARK   86  A    between atoms: _245  and  _248
REMARK   87  A    between atoms: _248  and  _249
REMARK   88  A    between atoms: _255  and  _257
REMARK   89  A    between atoms: _257  and  _258
REMARK   90  A    between atoms: _260  and  _262
REMARK   91  A    between atoms: _262  and  _263
REMARK   92  A    between atoms: _262  and  _265
REMARK   93  A    between atoms: _265  and  _266
REMARK   94  A    between atoms: _266  and  _267
REMARK   95  A    between atoms: _267  and  _268
REMARK   96  A    between atoms: _268  and  _269
REMARK   97  A    between atoms: _273  and  _275
REMARK   98  A    between atoms: _275  and  _276
REMARK   99  A    between atoms: _275  and  _278
REMARK  100  A    between atoms: _281  and  _283
REMARK  101  A    between atoms: _283  and  _284
REMARK  102  A    between atoms: _283  and  _286
REMARK  103  A    between atoms: _286  and  _287
REMARK  104  A    between atoms: _287  and  _288
REMARK  105  A    between atoms: _293  and  _295
REMARK  106  A    between atoms: _295  and  _296
REMARK  107  A    between atoms: _295  and  _298
REMARK  108  A    between atoms: _298  and  _299
REMARK  109  A    between atoms: _302  and  _304
REMARK  110  A    between atoms: _304  and  _305
REMARK  111  A    between atoms: _308  and  _310
REMARK  112  A    between atoms: _310  and  _311
REMARK  113  A    between atoms: _310  and  _313
REMARK  114  A    between atoms: _316  and  _318
REMARK  115  A    between atoms: _318  and  _319
REMARK  116  A    between atoms: _318  and  _321
REMARK  117  A    between atoms: _321  and  _322
REMARK  118  A    between atoms: _325  and  _327
REMARK  119  A    between atoms: _327  and  _328
REMARK  120  A    between atoms: _327  and  _330
REMARK  121  A    between atoms: _330  and  _331
REMARK  122  A    between atoms: _333  and  _335
REMARK  123  A    between atoms: _335  and  _336
REMARK  124  A    between atoms: _335  and  _338
REMARK  125  A    between atoms: _338  and  _339
REMARK  126  A    between atoms: _342  and  _344
REMARK  127  A    between atoms: _344  and  _345
REMARK  128  A    between atoms: _344  and  _347
REMARK  129  A    between atoms: _347  and  _348
REMARK  130  A    between atoms: _351  and  _353
REMARK  131  A    between atoms: _353  and  _354
REMARK  132  A    between atoms: _353  and  _356
REMARK  133  A    between atoms: _356  and  _357
REMARK  134  A    between atoms: _361  and  _362
REMARK  135  A    between atoms: _368  and  _369
REMARK  136  A    between atoms: _374  and  _376
REMARK  137  A    between atoms: _376  and  _377
REMARK  138  A    between atoms: _376  and  _379
REMARK  139  A    between atoms: _379  and  _380
REMARK  140  A    between atoms: _383  and  _385
REMARK  141  A    between atoms: _385  and  _386
REMARK  142  A    between atoms: _385  and  _388
REMARK  143  A    between atoms: _388  and  _389
REMARK  144  A    between atoms: _392  and  _394
REMARK  145  A    between atoms: _394  and  _395
REMARK  146  A    between atoms: _394  and  _397
REMARK  147  A    between atoms: _399  and  _401
REMARK  148  A    between atoms: _401  and  _402
REMARK  149  A    between atoms: _401  and  _404
REMARK  150  A    between atoms: _407  and  _409
REMARK  151  A    between atoms: _409  and  _410
REMARK  152  A    between atoms: _409  and  _412
REMARK  153  A    between atoms: _412  and  _413
REMARK  154  A    between atoms: _423  and  _425
REMARK  155  A    between atoms: _425  and  _426
REMARK  156  A    between atoms: _425  and  _428
REMARK  157  A    between atoms: _428  and  _429
REMARK  158  A    between atoms: _434  and  _436
REMARK  159  A    between atoms: _436  and  _437
REMARK  160  A    between atoms: _436  and  _439
REMARK  161  A    between atoms: _439  and  _440
REMARK  162  A    between atoms: _440  and  _441
REMARK  163  A    between atoms: _441  and  _442
REMARK                            x       y       z     vdW  Elec       q    Type
REMARK                         _______ _______ _______ _____ _____    ______ ____
ROOT
ATOM      1  CG  TYR A   1       2.122  -7.085  11.738  0.00  0.00    -0.020 A 
ATOM      2  CD2 TYR A   1       1.698  -7.101  13.068  0.00  0.00    -0.001 A 
ATOM      3  CE2 TYR A   1       0.838  -6.111  13.556  0.00  0.00    +0.036 A 
ATOM      4  CZ  TYR A   1       0.371  -5.130  12.703  0.00  0.00    +0.134 A 
ATOM      5  CE1 TYR A   1       0.787  -5.108  11.388  0.00  0.00    +0.036 A 
ATOM      6  CD1 TYR A   1       1.644  -6.071  10.919  0.00  0.00    -0.001 A 
ENDROOT
BRANCH   4   7
ATOM      7  OH  TYR A   1      -0.473  -4.143  13.128  0.00  0.00    -0.506 OA
ATOM      8  HH  TYR A   1      -0.688  -3.545  12.369  0.00  0.00    +0.292 HD
ENDBRANCH   4   7
BRANCH   1   9
ATOM      9  CB  TYR A   1       3.064  -8.158  11.205  0.00  0.00    +0.051 C 
BRANCH   9  10
ATOM     10  CA  TYR A   1       4.532  -7.857  11.497  0.00  0.00    +0.137 C 
BRANCH  10  11
ATOM     11  N   TYR A   1       4.946  -6.692  10.736  0.00  0.00    -0.239 NA
ATOM     12  H   TYR A   1       4.999  -6.756   9.699  0.00  0.00    +0.142 HD
ENDBRANCH  10  11
BRANCH  10  13
ATOM     13  C   TYR A   1       5.381  -9.084  11.188  0.00  0.00    +0.224 C 
ATOM     14  O   TYR A   1       5.012 -10.206  11.529  0.00  0.00    -0.287 OA
ENDBRANCH  10  13
ENDBRANCH   9  10
ENDBRANCH   1   9
TORSDOF 5
REMARK  Name = ../refined-set-2016/3oku/3oku_pocket.pdb
REMARK  163 active torsions:
REMARK  status: ('A' for Active; 'I' for Inactive)
REMARK    1  A    between atoms: _1  and  _3
REMARK    2  A    between atoms: _3  and  _4
REMARK    3  A    between atoms: _3  and  _6
REMARK    4  A    between atoms: _6  and  _7
REMARK    5  A    between atoms: _17  and  _19
REMARK    6  A    between atoms: _19  and  _20
REMARK    7  A    between atoms: _19  and  _22
REMARK    8  A    between atoms: _22  and  _23
REMARK    9  A    between atoms: _28  and  _29
REMARK   10  A    between atoms: _31  and  _33
REMARK   11  A    between atoms: _33  and  _34
REMARK   12  A    between atoms: _33  and  _36
REMARK   13  A    between atoms: _36  and  _37
REMARK   14  A    between atoms: _43  and  _45
REMARK   15  A    between atoms: _45  and  _46
REMARK   16  A    between atoms: _45  and  _48
REMARK   17  A    between atoms: _48  and  _49
REMARK   18  A    between atoms: _52  and  _53
REMARK   19  A    between atoms: _58  and  _60
REMARK   20  A    between atoms: _60  and  _61
REMARK   21  A    between atoms: _60  and  _63
REMARK   22  A    between atoms: _63  and  _64
REMARK   23  A    between atoms: _69  and  _71
REMARK   24  A    between atoms: _71  and  _72
REMARK   25  A    between atoms: _71  and  _74
REMARK   26  A    between atoms: _74  and  _75
REMARK   27  A    between atoms: _80  and  _82
REMARK   28  A    between atoms: _82  and  _83
REMARK   29  A    between atoms: _86  and  _88
REMARK   30  A    between atoms: _88  and  _89
REMARK   31  A    between atoms: _88  and  _91
REMARK   32  A    between atoms: _91  and  _92
REMARK   33  A    between atoms: _97  and  _99
REMARK   34  A    between atoms: _99  and  _100
REMARK   35  A    between atoms: _99  and  _102
REMARK   36  A    between atoms: _102  and  _103
REMARK   37  A    between atoms: _106  and  _108
REMARK   38  A    between atoms: _108  and  _109
REMARK   39  A    between atoms: _108  and  _111
REMARK   40  A    between atoms: _111  and  _112
REMARK   41  A    between atoms: _112  and  _113
REMARK   42  A    between atoms: _118  and  _120
REMARK   43  A    between atoms: _120  and  _121
REMARK   44  A    between atoms: _120  and  _123
REMARK   45  A    between atoms: _123  and  _124
REMARK   46  A    between atoms: _130  and  _132
REMARK   47  A    between atoms: _143  and  _146
REMARK   48  A    between atoms: _146  and  _147
REMARK   49  A    between atoms: _155  and  _156
REMARK   50  A    between atoms: _164  and  _166
REMARK   51  A    between atoms: _166  and  _167
REMARK   52  A    between atoms: _166  and  _169
REMARK   53  A    between atoms: _169  and  _170
REMARK   54  A    between atoms: _170  and  _171
REMARK   55  A    between atoms: _174  and  _176
REMARK   56  A    between atoms: _176  and  _177
REMARK   57  A    between atoms: _176  and  _179
REMARK   58  A    between atoms: _179  and  _180
REMARK   59  A    between atoms: _185  and  _187
REMARK   60  A    between atoms: _187  and  _188
REMARK   61  A    between atoms: _187  and  _190
REMARK   62  A    between atoms: _190  and  _191
REMARK   63  A    between atoms: _191  and  _192
REMARK   64  A    between atoms: _195  and  _197
REMARK   65  A    between atoms: _197  and  _198
REMARK   66  A    between atoms: _197  and  _200
REMARK   67  A    between atoms: _200  and  _201
REMARK   68  A    between atoms: _204  and  _206
REMARK   69  A    between atoms: _206  and  _207
REMARK   70  A    between atoms: _206  and  _209
REMARK   71  A    between atoms: _209  and  _210
REMARK   72  A    between atoms: _211  and  ZN_451
REMARK   73  A    between atoms: _215  and  _217
REMARK   74  A    between atoms: _217  and  _218
REMARK   75  A    between atoms: _217  and  _220
REMARK   76  A    between atoms: _220  and  _221
REMARK   77  A    between atoms: _224  and  _226
REMARK   78  A    between atoms: _226  and  _227
REMARK   79  A    between atoms: _226  and  _229
REMARK   80  A    between atoms: _232  and  _234
REMARK   81  A    between atoms: _234  and  _235
REMARK   82  A    between atoms: _234  and  _237
REMARK   83  A    between atoms: _237  and  _238
REMARK   84  A    between atoms: _243  and  _245
REMARK   85  A    between atoms: _245  and  _246
REMARK   86  A    between atoms: _245  and  _248
REMARK   87  A    between atoms: _248  and  _249
REMARK   88  A    between atoms: _255  and  _257
REMARK   89  A    between atoms: _257  and  _258
REMARK   90  A    between atoms: _260  and  _262
REMARK   91  A    between atoms: _262  and  _263
REMARK   92  A    between atoms: _262  and  _265
REMARK   93  A    between atoms: _265  and  _266
REMARK   94  A    between atoms: _266  and  _267
REMARK   95  A    between atoms: _267  and  _268
REMARK   96  A    between atoms: _268  and  _269
REMARK   97  A    between atoms: _273  and  _275
REMARK   98  A    between atoms: _275  and  _276
REMARK   99  A    between atoms: _275  and  _278
REMARK  100  A    between atoms: _281  and  _283
REMARK  101  A    between atoms: _283  and  _284
REMARK  102  A    between atoms: _283  and  _286
REMARK  103  A    between atoms: _286  and  _287
REMARK  104  A    between atoms: _287  and  _288
REMARK  105  A    between atoms: _293  and  _295
REMARK  106  A    between atoms: _295  and  _296
REMARK  107  A    between atoms: _295  and  _298
REMARK  108  A    between atoms: _298  and  _299
REMARK  109  A    between atoms: _302  and  _304
REMARK  110  A    between atoms: _304  and  _305
REMARK  111  A    between atoms: _308  and  _310
REMARK  112  A    between atoms: _310  and  _311
REMARK  113  A    between atoms: _310  and  _313
REMARK  114  A    between atoms: _316  and  _318
REMARK  115  A    between atoms: _318  and  _319
REMARK  116  A    between atoms: _318  and  _321
REMARK  117  A    between atoms: _321  and  _322
REMARK  118  A    between atoms: _325  and  _327
REMARK  119  A    between atoms: _327  and  _328
REMARK  120  A    between atoms: _327  and  _330
REMARK  121  A    between atoms: _330  and  _331
REMARK  122  A    between atoms: _333  and  _335
REMARK  123  A    between atoms: _335  and  _336
REMARK  124  A    between atoms: _335  and  _338
REMARK  125  A    between atoms: _338  and  _339
REMARK  126  A    between atoms: _342  and  _344
REMARK  127  A    between atoms: _344  and  _345
REMARK  128  A    between atoms: _344  and  _347
REMARK  129  A    between atoms: _347  and  _348
REMARK  130  A    between atoms: _351  and  _353
REMARK  131  A    between atoms: _353  and  _354
REMARK  132  A    between atoms: _353  and  _356
REMARK  133  A    between atoms: _356  and  _357
REMARK  134  A    between atoms: _361  and  _362
REMARK  135  A    between atoms: _368  and  _369
REMARK  136  A    between atoms: _374  and  _376
REMARK  137  A    between atoms: _376  and  _377
REMARK  138  A    between atoms: _376  and  _379
REMARK  139  A    between atoms: _379  and  _380
REMARK  140  A    between atoms: _383  and  _385
REMARK  141  A    between atoms: _385  and  _386
REMARK  142  A    between atoms: _385  and  _388
REMARK  143  A    between atoms: _388  and  _389
REMARK  144  A    between atoms: _392  and  _394
REMARK  145  A    between atoms: _394  and  _395
REMARK  146  A    between atoms: _394  and  _397
REMARK  147  A    between atoms: _399  and  _401
REMARK  148  A    between atoms: _401  and  _402
REMARK  149  A    between atoms: _401  and  _404
REMARK  150  A    between atoms: _407  and  _409
REMARK  151  A    between atoms: _409  and  _410
REMARK  152  A    between atoms: _409  and  _412
REMARK  153  A    between atoms: _412  and  _413
REMARK  154  A    between atoms: _423  and  _425
REMARK  155  A    between atoms: _425  and  _426
REMARK  156  A    between atoms: _425  and  _428
REMARK  157  A    between atoms: _428  and  _429
REMARK  158  A    between atoms: _434  and  _436
REMARK  159  A    between atoms: _436  and  _437
REMARK  160  A    between atoms: _436  and  _439
REMARK  161  A    between atoms: _439  and  _440
REMARK  162  A    between atoms: _440  and  _441
REMARK  163  A    between atoms: _441  and  _442
REMARK                            x       y       z     vdW  Elec       q    Type
REMARK                         _______ _______ _______ _____ _____    ______ ____
ROOT
ATOM      1  CB  PHE A   1       7.530   3.153  19.098  0.00  0.00    +0.051 C 
ENDROOT
BRANCH   1   2
ATOM      2  CG  PHE A   1       7.463   3.529  17.648  0.00  0.00    -0.020 A 
ATOM      3  CD2 PHE A   1       7.151   4.825  17.265  0.00  0.00    -0.004 A 
ATOM      4  CE2 PHE A   1       7.116   5.161  15.919  0.00  0.00    -0.000 A 
ATOM      5  CZ  PHE A   1       7.418   4.224  14.961  0.00  0.00    -0.000 A 
ATOM      6  CE1 PHE A   1       7.753   2.949  15.328  0.00  0.00    -0.000 A 
ATOM      7  CD1 PHE A   1       7.775   2.605  16.666  0.00  0.00    -0.004 A 
ENDBRANCH   1   2
BRANCH   1   8
ATOM      8  CA  PHE A   1       8.844   3.566  19.768  0.00  0.00    +0.137 C 
BRANCH   8   9
ATOM      9  N   PHE A   1       9.964   3.014  18.987  0.00  0.00    -0.239 NA
ATOM     10  H   PHE A   1      10.177   1.999  19.062  0.00  0.00    +0.142 HD
ENDBRANCH   8   9
BRANCH   8  11
ATOM     11  C   PHE A   1       8.911   3.049  21.195  0.00  0.00    +0.224 C 
ATOM     12  O   PHE A   1       8.256   2.068  21.522  0.00  0.00    -0.287 OA
ENDBRANCH   8  11
ENDBRANCH   1   8
TORSDOF 4
REMARK  Name = ../refined-set-2016/3oku/3oku_pocket.pdb
REMARK  163 active torsions:
REMARK  status: ('A' for Active; 'I' for Inactive)
REMARK    1  A    between atoms: _1  and  _3
REMARK    2  A    between atoms: _3  and  _4
REMARK    3  A    between atoms: _3  and  _6
REMARK    4  A    between atoms: _6  and  _7
REMARK    5  A    between atoms: _17  and  _19
REMARK    6  A    between atoms: _19  and  _20
REMARK    7  A    between atoms: _19  and  _22
REMARK    8  A    between atoms: _22  and  _23
REMARK    9  A    between atoms: _28  and  _29
REMARK   10  A    between atoms: _31  and  _33
REMARK   11  A    between atoms: _33  and  _34
REMARK   12  A    between atoms: _33  and  _36
REMARK   13  A    between atoms: _36  and  _37
REMARK   14  A    between atoms: _43  and  _45
REMARK   15  A    between atoms: _45  and  _46
REMARK   16  A    between atoms: _45  and  _48
REMARK   17  A    between atoms: _48  and  _49
REMARK   18  A    between atoms: _52  and  _53
REMARK   19  A    between atoms: _58  and  _60
REMARK   20  A    between atoms: _60  and  _61
REMARK   21  A    between atoms: _60  and  _63
REMARK   22  A    between atoms: _63  and  _64
REMARK   23  A    between atoms: _69  and  _71
REMARK   24  A    between atoms: _71  and  _72
REMARK   25  A    between atoms: _71  and  _74
REMARK   26  A    between atoms: _74  and  _75
REMARK   27  A    between atoms: _80  and  _82
REMARK   28  A    between atoms: _82  and  _83
REMARK   29  A    between atoms: _86  and  _88
REMARK   30  A    between atoms: _88  and  _89
REMARK   31  A    between atoms: _88  and  _91
REMARK   32  A    between atoms: _91  and  _92
REMARK   33  A    between atoms: _97  and  _99
REMARK   34  A    between atoms: _99  and  _100
REMARK   35  A    between atoms: _99  and  _102
REMARK   36  A    between atoms: _102  and  _103
REMARK   37  A    between atoms: _106  and  _108
REMARK   38  A    between atoms: _108  and  _109
REMARK   39  A    between atoms: _108  and  _111
REMARK   40  A    between atoms: _111  and  _112
REMARK   41  A    between atoms: _112  and  _113
REMARK   42  A    between atoms: _118  and  _120
REMARK   43  A    between atoms: _120  and  _121
REMARK   44  A    between atoms: _120  and  _123
REMARK   45  A    between atoms: _123  and  _124
REMARK   46  A    between atoms: _130  and  _132
REMARK   47  A    between atoms: _143  and  _146
REMARK   48  A    between atoms: _146  and  _147
REMARK   49  A    between atoms: _155  and  _156
REMARK   50  A    between atoms: _164  and  _166
REMARK   51  A    between atoms: _166  and  _167
REMARK   52  A    between atoms: _166  and  _169
REMARK   53  A    between atoms: _169  and  _170
REMARK   54  A    between atoms: _170  and  _171
REMARK   55  A    between atoms: _174  and  _176
REMARK   56  A    between atoms: _176  and  _177
REMARK   57  A    between atoms: _176  and  _179
REMARK   58  A    between atoms: _179  and  _180
REMARK   59  A    between atoms: _185  and  _187
REMARK   60  A    between atoms: _187  and  _188
REMARK   61  A    between atoms: _187  and  _190
REMARK   62  A    between atoms: _190  and  _191
REMARK   63  A    between atoms: _191  and  _192
REMARK   64  A    between atoms: _195  and  _197
REMARK   65  A    between atoms: _197  and  _198
REMARK   66  A    between atoms: _197  and  _200
REMARK   67  A    between atoms: _200  and  _201
REMARK   68  A    between atoms: _204  and  _206
REMARK   69  A    between atoms: _206  and  _207
REMARK   70  A    between atoms: _206  and  _209
REMARK   71  A    between atoms: _209  and  _210
REMARK   72  A    between atoms: _211  and  ZN_451
REMARK   73  A    between atoms: _215  and  _217
REMARK   74  A    between atoms: _217  and  _218
REMARK   75  A    between atoms: _217  and  _220
REMARK   76  A    between atoms: _220  and  _221
REMARK   77  A    between atoms: _224  and  _226
REMARK   78  A    between atoms: _226  and  _227
REMARK   79  A    between atoms: _226  and  _229
REMARK   80  A    between atoms: _232  and  _234
REMARK   81  A    between atoms: _234  and  _235
REMARK   82  A    between atoms: _234  and  _237
REMARK   83  A    between atoms: _237  and  _238
REMARK   84  A    between atoms: _243  and  _245
REMARK   85  A    between atoms: _245  and  _246
REMARK   86  A    between atoms: _245  and  _248
REMARK   87  A    between atoms: _248  and  _249
REMARK   88  A    between atoms: _255  and  _257
REMARK   89  A    between atoms: _257  and  _258
REMARK   90  A    between atoms: _260  and  _262
REMARK   91  A    between atoms: _262  and  _263
REMARK   92  A    between atoms: _262  and  _265
REMARK   93  A    between atoms: _265  and  _266
REMARK   94  A    between atoms: _266  and  _267
REMARK   95  A    between atoms: _267  and  _268
REMARK   96  A    between atoms: _268  and  _269
REMARK   97  A    between atoms: _273  and  _275
REMARK   98  A    between atoms: _275  and  _276
REMARK   99  A    between atoms: _275  and  _278
REMARK  100  A    between atoms: _281  and  _283
REMARK  101  A    between atoms: _283  and  _284
REMARK  102  A    between atoms: _283  and  _286
REMARK  103  A    between atoms: _286  and  _287
REMARK  104  A    between atoms: _287  and  _288
REMARK  105  A    between atoms: _293  and  _295
REMARK  106  A    between atoms: _295  and  _296
REMARK  107  A    between atoms: _295  and  _298
REMARK  108  A    between atoms: _298  and  _299
REMARK  109  A    between atoms: _302  and  _304
REMARK  110  A    between atoms: _304  and  _305
REMARK  111  A    between atoms: _308  and  _310
REMARK  112  A    between atoms: _310  and  _311
REMARK  113  A    between atoms: _310  and  _313
REMARK  114  A    between atoms: _316  and  _318
REMARK  115  A    between atoms: _318  and  _319
REMARK  116  A    between atoms: _318  and  _321
REMARK  117  A    between atoms: _321  and  _322
REMARK  118  A    between atoms: _325  and  _327
REMARK  119  A    between atoms: _327  and  _328
REMARK  120  A    between atoms: _327  and  _330
REMARK  121  A    between atoms: _330  and  _331
REMARK  122  A    between atoms: _333  and  _335
REMARK  123  A    between atoms: _335  and  _336
REMARK  124  A    between atoms: _335  and  _338
REMARK  125  A    between atoms: _338  and  _339
REMARK  126  A    between atoms: _342  and  _344
REMARK  127  A    between atoms: _344  and  _345
REMARK  128  A    between atoms: _344  and  _347
REMARK  129  A    between atoms: _347  and  _348
REMARK  130  A    between atoms: _351  and  _353
REMARK  131  A    between atoms: _353  and  _354
REMARK  132  A    between atoms: _353  and  _356
REMARK  133  A    between atoms: _356  and  _357
REMARK  134  A    between atoms: _361  and  _362
REMARK  135  A    between atoms: _368  and  _369
REMARK  136  A    between atoms: _374  and  _376
REMARK  137  A    between atoms: _376  and  _377
REMARK  138  A    between atoms: _376  and  _379
REMARK  139  A    between atoms: _379  and  _380
REMARK  140  A    between atoms: _383  and  _385
REMARK  141  A    between atoms: _385  and  _386
REMARK  142  A    between atoms: _385  and  _388
REMARK  143  A    between atoms: _388  and  _389
REMARK  144  A    between atoms: _392  and  _394
REMARK  145  A    between atoms: _394  and  _395
REMARK  146  A    between atoms: _394  and  _397
REMARK  147  A    between atoms: _399  and  _401
REMARK  148  A    between atoms: _401  and  _402
REMARK  149  A    between atoms: _401  and  _404
REMARK  150  A    between atoms: _407  and  _409
REMARK  151  A    between atoms: _409  and  _410
REMARK  152  A    between atoms: _409  and  _412
REMARK  153  A    between atoms: _412  and  _413
REMARK  154  A    between atoms: _423  and  _425
REMARK  155  A    between atoms: _425  and  _426
REMARK  156  A    between atoms: _425  and  _428
REMARK  157  A    between atoms: _428  and  _429
REMARK  158  A    between atoms: _434  and  _436
REMARK  159  A    between atoms: _436  and  _437
REMARK  160  A    between atoms: _436  and  _439
REMARK  161  A    between atoms: _439  and  _440
REMARK  162  A    between atoms: _440  and  _441
REMARK  163  A    between atoms: _441  and  _442
REMARK                            x       y       z     vdW  Elec       q    Type
REMARK                         _______ _______ _______ _____ _____    ______ ____
ROOT
ATOM      1  C   SER A   1      -2.214  -3.198  23.077  0.00  0.00    +0.244 C 
ATOM      2  N   PRO A   2      -2.851  -4.345  22.812  0.00  0.00    -0.273 N 
ATOM      3  CA  PRO A   2      -4.016  -4.879  23.516  0.00  0.00    +0.140 C 
ATOM      4  CB  PRO A   2      -4.536  -5.921  22.526  0.00  0.00    +0.030 C 
ATOM      5  CG  PRO A   2      -3.233  -6.486  21.944  0.00  0.00    +0.024 C 
ATOM      6  CD  PRO A   2      -2.363  -5.268  21.768  0.00  0.00    +0.094 C 
ATOM      7  O   SER A   1      -1.243  -2.841  22.419  0.00  0.00    -0.273 OA
ENDROOT
BRANCH   3   8
ATOM      8  C   PRO A   2      -3.630  -5.553  24.823  0.00  0.00    +0.227 C 
ATOM      9  O   PRO A   2      -2.432  -5.565  25.166  0.00  0.00    -0.286 OA
ENDBRANCH   3   8
BRANCH   1  10
ATOM     10  CA  SER A   1      -2.732  -2.338  24.219  0.00  0.00    +0.175 C 
BRANCH  10  11
ATOM     11  N   SER A   1      -1.688  -1.455  24.693  0.00  0.00    -0.236 NA
ATOM     12  H   SER A   1      -1.205  -0.841  24.006  0.00  0.00    +0.142 HD
ENDBRANCH  10  11
BRANCH  10  13
ATOM     13  CB  SER A   1      -3.885  -1.506  23.685  0.00  0.00    +0.163 C 
BRANCH  13  14
ATOM     14  OG  SER A   1      -4.476  -0.776  24.735  0.00  0.00    -0.380 OA
ATOM     15  H   SER A   1      -4.816  -1.403  25.421  0.00  0.00    +0.211 HD
ENDBRANCH  13  14
ENDBRANCH  10  13
ENDBRANCH   1  10
TORSDOF 5
REMARK  Name = ../refined-set-2016/3oku/3oku_pocket.pdb
REMARK  163 active torsions:
REMARK  status: ('A' for Active; 'I' for Inactive)
REMARK    1  A    between atoms: _1  and  _3
REMARK    2  A    between atoms: _3  and  _4
REMARK    3  A    between atoms: _3  and  _6
REMARK    4  A    between atoms: _6  and  _7
REMARK    5  A    between atoms: _17  and  _19
REMARK    6  A    between atoms: _19  and  _20
REMARK    7  A    between atoms: _19  and  _22
REMARK    8  A    between atoms: _22  and  _23
REMARK    9  A    between atoms: _28  and  _29
REMARK   10  A    between atoms: _31  and  _33
REMARK   11  A    between atoms: _33  and  _34
REMARK   12  A    between atoms: _33  and  _36
REMARK   13  A    between atoms: _36  and  _37
REMARK   14  A    between atoms: _43  and  _45
REMARK   15  A    between atoms: _45  and  _46
REMARK   16  A    between atoms: _45  and  _48
REMARK   17  A    between atoms: _48  and  _49
REMARK   18  A    between atoms: _52  and  _53
REMARK   19  A    between atoms: _58  and  _60
REMARK   20  A    between atoms: _60  and  _61
REMARK   21  A    between atoms: _60  and  _63
REMARK   22  A    between atoms: _63  and  _64
REMARK   23  A    between atoms: _69  and  _71
REMARK   24  A    between atoms: _71  and  _72
REMARK   25  A    between atoms: _71  and  _74
REMARK   26  A    between atoms: _74  and  _75
REMARK   27  A    between atoms: _80  and  _82
REMARK   28  A    between atoms: _82  and  _83
REMARK   29  A    between atoms: _86  and  _88
REMARK   30  A    between atoms: _88  and  _89
REMARK   31  A    between atoms: _88  and  _91
REMARK   32  A    between atoms: _91  and  _92
REMARK   33  A    between atoms: _97  and  _99
REMARK   34  A    between atoms: _99  and  _100
REMARK   35  A    between atoms: _99  and  _102
REMARK   36  A    between atoms: _102  and  _103
REMARK   37  A    between atoms: _106  and  _108
REMARK   38  A    between atoms: _108  and  _109
REMARK   39  A    between atoms: _108  and  _111
REMARK   40  A    between atoms: _111  and  _112
REMARK   41  A    between atoms: _112  and  _113
REMARK   42  A    between atoms: _118  and  _120
REMARK   43  A    between atoms: _120  and  _121
REMARK   44  A    between atoms: _120  and  _123
REMARK   45  A    between atoms: _123  and  _124
REMARK   46  A    between atoms: _130  and  _132
REMARK   47  A    between atoms: _143  and  _146
REMARK   48  A    between atoms: _146  and  _147
REMARK   49  A    between atoms: _155  and  _156
REMARK   50  A    between atoms: _164  and  _166
REMARK   51  A    between atoms: _166  and  _167
REMARK   52  A    between atoms: _166  and  _169
REMARK   53  A    between atoms: _169  and  _170
REMARK   54  A    between atoms: _170  and  _171
REMARK   55  A    between atoms: _174  and  _176
REMARK   56  A    between atoms: _176  and  _177
REMARK   57  A    between atoms: _176  and  _179
REMARK   58  A    between atoms: _179  and  _180
REMARK   59  A    between atoms: _185  and  _187
REMARK   60  A    between atoms: _187  and  _188
REMARK   61  A    between atoms: _187  and  _190
REMARK   62  A    between atoms: _190  and  _191
REMARK   63  A    between atoms: _191  and  _192
REMARK   64  A    between atoms: _195  and  _197
REMARK   65  A    between atoms: _197  and  _198
REMARK   66  A    between atoms: _197  and  _200
REMARK   67  A    between atoms: _200  and  _201
REMARK   68  A    between atoms: _204  and  _206
REMARK   69  A    between atoms: _206  and  _207
REMARK   70  A    between atoms: _206  and  _209
REMARK   71  A    between atoms: _209  and  _210
REMARK   72  A    between atoms: _211  and  ZN_451
REMARK   73  A    between atoms: _215  and  _217
REMARK   74  A    between atoms: _217  and  _218
REMARK   75  A    between atoms: _217  and  _220
REMARK   76  A    between atoms: _220  and  _221
REMARK   77  A    between atoms: _224  and  _226
REMARK   78  A    between atoms: _226  and  _227
REMARK   79  A    between atoms: _226  and  _229
REMARK   80  A    between atoms: _232  and  _234
REMARK   81  A    between atoms: _234  and  _235
REMARK   82  A    between atoms: _234  and  _237
REMARK   83  A    between atoms: _237  and  _238
REMARK   84  A    between atoms: _243  and  _245
REMARK   85  A    between atoms: _245  and  _246
REMARK   86  A    between atoms: _245  and  _248
REMARK   87  A    between atoms: _248  and  _249
REMARK   88  A    between atoms: _255  and  _257
REMARK   89  A    between atoms: _257  and  _258
REMARK   90  A    between atoms: _260  and  _262
REMARK   91  A    between atoms: _262  and  _263
REMARK   92  A    between atoms: _262  and  _265
REMARK   93  A    between atoms: _265  and  _266
REMARK   94  A    between atoms: _266  and  _267
REMARK   95  A    between atoms: _267  and  _268
REMARK   96  A    between atoms: _268  and  _269
REMARK   97  A    between atoms: _273  and  _275
REMARK   98  A    between atoms: _275  and  _276
REMARK   99  A    between atoms: _275  and  _278
REMARK  100  A    between atoms: _281  and  _283
REMARK  101  A    between atoms: _283  and  _284
REMARK  102  A    between atoms: _283  and  _286
REMARK  103  A    between atoms: _286  and  _287
REMARK  104  A    between atoms: _287  and  _288
REMARK  105  A    between atoms: _293  and  _295
REMARK  106  A    between atoms: _295  and  _296
REMARK  107  A    between atoms: _295  and  _298
REMARK  108  A    between atoms: _298  and  _299
REMARK  109  A    between atoms: _302  and  _304
REMARK  110  A    between atoms: _304  and  _305
REMARK  111  A    between atoms: _308  and  _310
REMARK  112  A    between atoms: _310  and  _311
REMARK  113  A    between atoms: _310  and  _313
REMARK  114  A    between atoms: _316  and  _318
REMARK  115  A    between atoms: _318  and  _319
REMARK  116  A    between atoms: _318  and  _321
REMARK  117  A    between atoms: _321  and  _322
REMARK  118  A    between atoms: _325  and  _327
REMARK  119  A    between atoms: _327  and  _328
REMARK  120  A    between atoms: _327  and  _330
REMARK  121  A    between atoms: _330  and  _331
REMARK  122  A    between atoms: _333  and  _335
REMARK  123  A    between atoms: _335  and  _336
REMARK  124  A    between atoms: _335  and  _338
REMARK  125  A    between atoms: _338  and  _339
REMARK  126  A    between atoms: _342  and  _344
REMARK  127  A    between atoms: _344  and  _345
REMARK  128  A    between atoms: _344  and  _347
REMARK  129  A    between atoms: _347  and  _348
REMARK  130  A    between atoms: _351  and  _353
REMARK  131  A    between atoms: _353  and  _354
REMARK  132  A    between atoms: _353  and  _356
REMARK  133  A    between atoms: _356  and  _357
REMARK  134  A    between atoms: _361  and  _362
REMARK  135  A    between atoms: _368  and  _369
REMARK  136  A    between atoms: _374  and  _376
REMARK  137  A    between atoms: _376  and  _377
REMARK  138  A    between atoms: _376  and  _379
REMARK  139  A    between atoms: _379  and  _380
REMARK  140  A    between atoms: _383  and  _385
REMARK  141  A    between atoms: _385  and  _386
REMARK  142  A    between atoms: _385  and  _388
REMARK  143  A    between atoms: _388  and  _389
REMARK  144  A    between atoms: _392  and  _394
REMARK  145  A    between atoms: _394  and  _395
REMARK  146  A    between atoms: _394  and  _397
REMARK  147  A    between atoms: _399  and  _401
REMARK  148  A    between atoms: _401  and  _402
REMARK  149  A    between atoms: _401  and  _404
REMARK  150  A    between atoms: _407  and  _409
REMARK  151  A    between atoms: _409  and  _410
REMARK  152  A    between atoms: _409  and  _412
REMARK  153  A    between atoms: _412  and  _413
REMARK  154  A    between atoms: _423  and  _425
REMARK  155  A    between atoms: _425  and  _426
REMARK  156  A    between atoms: _425  and  _428
REMARK  157  A    between atoms: _428  and  _429
REMARK  158  A    between atoms: _434  and  _436
REMARK  159  A    between atoms: _436  and  _437
REMARK  160  A    between atoms: _436  and  _439
REMARK  161  A    between atoms: _439  and  _440
REMARK  162  A    between atoms: _440  and  _441
REMARK  163  A    between atoms: _441  and  _442
REMARK                            x       y       z     vdW  Elec       q    Type
REMARK                         _______ _______ _______ _____ _____    ______ ____
ROOT
ATOM      1  CB  ASN A   1      -2.620   2.041   5.304  0.00  0.00    +0.110 C 
ENDROOT
BRANCH   1   2
ATOM      2  CG  ASN A   1      -2.996   1.182   6.490  0.00  0.00    +0.221 C 
ATOM      3  ND2 ASN A   1      -3.755   1.747   7.421  0.00  0.00    -0.329 N 
ATOM      4 HD21 ASN A   1      -4.070   1.192   8.242  0.00  0.00    +0.145 HD
ATOM      5 HD22 ASN A   1      -4.034   2.745   7.329  0.00  0.00    +0.145 HD
ATOM      6  OD1 ASN A   1      -2.639   0.003   6.554  0.00  0.00    -0.275 OA
ENDBRANCH   1   2
BRANCH   1   7
ATOM      7  CA  ASN A   1      -2.228   1.207   4.073  0.00  0.00    +0.142 C 
BRANCH   7   8
ATOM      8  N   ASN A   1      -3.335   0.356   3.626  0.00  0.00    -0.239 NA
ATOM      9  H   ASN A   1      -3.887  -0.181   4.326  0.00  0.00    +0.142 HD
ENDBRANCH   7   8
BRANCH   7  10
ATOM     10  C   ASN A   1      -0.963   0.419   4.369  0.00  0.00    +0.225 C 
ATOM     11  O   ASN A   1      -0.005   0.952   4.924  0.00  0.00    -0.287 OA
ENDBRANCH   7  10
ENDBRANCH   1   7
TORSDOF 4
REMARK  Name = ../refined-set-2016/3oku/3oku_pocket.pdb
REMARK  163 active torsions:
REMARK  status: ('A' for Active; 'I' for Inactive)
REMARK    1  A    between atoms: _1  and  _3
REMARK    2  A    between atoms: _3  and  _4
REMARK    3  A    between atoms: _3  and  _6
REMARK    4  A    between atoms: _6  and  _7
REMARK    5  A    between atoms: _17  and  _19
REMARK    6  A    between atoms: _19  and  _20
REMARK    7  A    between atoms: _19  and  _22
REMARK    8  A    between atoms: _22  and  _23
REMARK    9  A    between atoms: _28  and  _29
REMARK   10  A    between atoms: _31  and  _33
REMARK   11  A    between atoms: _33  and  _34
REMARK   12  A    between atoms: _33  and  _36
REMARK   13  A    between atoms: _36  and  _37
REMARK   14  A    between atoms: _43  and  _45
REMARK   15  A    between atoms: _45  and  _46
REMARK   16  A    between atoms: _45  and  _48
REMARK   17  A    between atoms: _48  and  _49
REMARK   18  A    between atoms: _52  and  _53
REMARK   19  A    between atoms: _58  and  _60
REMARK   20  A    between atoms: _60  and  _61
REMARK   21  A    between atoms: _60  and  _63
REMARK   22  A    between atoms: _63  and  _64
REMARK   23  A    between atoms: _69  and  _71
REMARK   24  A    between atoms: _71  and  _72
REMARK   25  A    between atoms: _71  and  _74
REMARK   26  A    between atoms: _74  and  _75
REMARK   27  A    between atoms: _80  and  _82
REMARK   28  A    between atoms: _82  and  _83
REMARK   29  A    between atoms: _86  and  _88
REMARK   30  A    between atoms: _88  and  _89
REMARK   31  A    between atoms: _88  and  _91
REMARK   32  A    between atoms: _91  and  _92
REMARK   33  A    between atoms: _97  and  _99
REMARK   34  A    between atoms: _99  and  _100
REMARK   35  A    between atoms: _99  and  _102
REMARK   36  A    between atoms: _102  and  _103
REMARK   37  A    between atoms: _106  and  _108
REMARK   38  A    between atoms: _108  and  _109
REMARK   39  A    between atoms: _108  and  _111
REMARK   40  A    between atoms: _111  and  _112
REMARK   41  A    between atoms: _112  and  _113
REMARK   42  A    between atoms: _118  and  _120
REMARK   43  A    between atoms: _120  and  _121
REMARK   44  A    between atoms: _120  and  _123
REMARK   45  A    between atoms: _123  and  _124
REMARK   46  A    between atoms: _130  and  _132
REMARK   47  A    between atoms: _143  and  _146
REMARK   48  A    between atoms: _146  and  _147
REMARK   49  A    between atoms: _155  and  _156
REMARK   50  A    between atoms: _164  and  _166
REMARK   51  A    between atoms: _166  and  _167
REMARK   52  A    between atoms: _166  and  _169
REMARK   53  A    between atoms: _169  and  _170
REMARK   54  A    between atoms: _170  and  _171
REMARK   55  A    between atoms: _174  and  _176
REMARK   56  A    between atoms: _176  and  _177
REMARK   57  A    between atoms: _176  and  _179
REMARK   58  A    between atoms: _179  and  _180
REMARK   59  A    between atoms: _185  and  _187
REMARK   60  A    between atoms: _187  and  _188
REMARK   61  A    between atoms: _187  and  _190
REMARK   62  A    between atoms: _190  and  _191
REMARK   63  A    between atoms: _191  and  _192
REMARK   64  A    between atoms: _195  and  _197
REMARK   65  A    between atoms: _197  and  _198
REMARK   66  A    between atoms: _197  and  _200
REMARK   67  A    between atoms: _200  and  _201
REMARK   68  A    between atoms: _204  and  _206
REMARK   69  A    between atoms: _206  and  _207
REMARK   70  A    between atoms: _206  and  _209
REMARK   71  A    between atoms: _209  and  _210
REMARK   72  A    between atoms: _211  and  ZN_451
REMARK   73  A    between atoms: _215  and  _217
REMARK   74  A    between atoms: _217  and  _218
REMARK   75  A    between atoms: _217  and  _220
REMARK   76  A    between atoms: _220  and  _221
REMARK   77  A    between atoms: _224  and  _226
REMARK   78  A    between atoms: _226  and  _227
REMARK   79  A    between atoms: _226  and  _229
REMARK   80  A    between atoms: _232  and  _234
REMARK   81  A    between atoms: _234  and  _235
REMARK   82  A    between atoms: _234  and  _237
REMARK   83  A    between atoms: _237  and  _238
REMARK   84  A    between atoms: _243  and  _245
REMARK   85  A    between atoms: _245  and  _246
REMARK   86  A    between atoms: _245  and  _248
REMARK   87  A    between atoms: _248  and  _249
REMARK   88  A    between atoms: _255  and  _257
REMARK   89  A    between atoms: _257  and  _258
REMARK   90  A    between atoms: _260  and  _262
REMARK   91  A    between atoms: _262  and  _263
REMARK   92  A    between atoms: _262  and  _265
REMARK   93  A    between atoms: _265  and  _266
REMARK   94  A    between atoms: _266  and  _267
REMARK   95  A    between atoms: _267  and  _268
REMARK   96  A    between atoms: _268  and  _269
REMARK   97  A    between atoms: _273  and  _275
REMARK   98  A    between atoms: _275  and  _276
REMARK   99  A    between atoms: _275  and  _278
REMARK  100  A    between atoms: _281  and  _283
REMARK  101  A    between atoms: _283  and  _284
REMARK  102  A    between atoms: _283  and  _286
REMARK  103  A    between atoms: _286  and  _287
REMARK  104  A    between atoms: _287  and  _288
REMARK  105  A    between atoms: _293  and  _295
REMARK  106  A    between atoms: _295  and  _296
REMARK  107  A    between atoms: _295  and  _298
REMARK  108  A    between atoms: _298  and  _299
REMARK  109  A    between atoms: _302  and  _304
REMARK  110  A    between atoms: _304  and  _305
REMARK  111  A    between atoms: _308  and  _310
REMARK  112  A    between atoms: _310  and  _311
REMARK  113  A    between atoms: _310  and  _313
REMARK  114  A    between atoms: _316  and  _318
REMARK  115  A    between atoms: _318  and  _319
REMARK  116  A    between atoms: _318  and  _321
REMARK  117  A    between atoms: _321  and  _322
REMARK  118  A    between atoms: _325  and  _327
REMARK  119  A    between atoms: _327  and  _328
REMARK  120  A    between atoms: _327  and  _330
REMARK  121  A    between atoms: _330  and  _331
REMARK  122  A    between atoms: _333  and  _335
REMARK  123  A    between atoms: _335  and  _336
REMARK  124  A    between atoms: _335  and  _338
REMARK  125  A    between atoms: _338  and  _339
REMARK  126  A    between atoms: _342  and  _344
REMARK  127  A    between atoms: _344  and  _345
REMARK  128  A    between atoms: _344  and  _347
REMARK  129  A    between atoms: _347  and  _348
REMARK  130  A    between atoms: _351  and  _353
REMARK  131  A    between atoms: _353  and  _354
REMARK  132  A    between atoms: _353  and  _356
REMARK  133  A    between atoms: _356  and  _357
REMARK  134  A    between atoms: _361  and  _362
REMARK  135  A    between atoms: _368  and  _369
REMARK  136  A    between atoms: _374  and  _376
REMARK  137  A    between atoms: _376  and  _377
REMARK  138  A    between atoms: _376  and  _379
REMARK  139  A    between atoms: _379  and  _380
REMARK  140  A    between atoms: _383  and  _385
REMARK  141  A    between atoms: _385  and  _386
REMARK  142  A    between atoms: _385  and  _388
REMARK  143  A    between atoms: _388  and  _389
REMARK  144  A    between atoms: _392  and  _394
REMARK  145  A    between atoms: _394  and  _395
REMARK  146  A    between atoms: _394  and  _397
REMARK  147  A    between atoms: _399  and  _401
REMARK  148  A    between atoms: _401  and  _402
REMARK  149  A    between atoms: _401  and  _404
REMARK  150  A    between atoms: _407  and  _409
REMARK  151  A    between atoms: _409  and  _410
REMARK  152  A    between atoms: _409  and  _412
REMARK  153  A    between atoms: _412  and  _413
REMARK  154  A    between atoms: _423  and  _425
REMARK  155  A    between atoms: _425  and  _426
REMARK  156  A    between atoms: _425  and  _428
REMARK  157  A    between atoms: _428  and  _429
REMARK  158  A    between atoms: _434  and  _436
REMARK  159  A    between atoms: _436  and  _437
REMARK  160  A    between atoms: _436  and  _439
REMARK  161  A    between atoms: _439  and  _440
REMARK  162  A    between atoms: _440  and  _441
REMARK  163  A    between atoms: _441  and  _442
REMARK                            x       y       z     vdW  Elec       q    Type
REMARK                         _______ _______ _______ _____ _____    ______ ____
ROOT
ATOM      1  CA  HIS A   1      -0.769  -3.035   7.553  0.00  0.00    +0.151 C 
ENDROOT
BRANCH   1   2
ATOM      2  C   HIS A   1      -2.185  -3.441   7.897  0.00  0.00    +0.239 C 
ATOM      3  O   HIS A   1      -2.365  -4.370   8.666  0.00  0.00    -0.274 OA
ATOM      4  N   ALA A   2      -3.176  -2.818   7.271  0.00  0.00    -0.298 N 
ATOM      5  H   ALA A   2      -2.943  -1.981   6.699  0.00  0.00    +0.150 HD
BRANCH   4   6
ATOM      6  CA  ALA A   2      -4.572  -3.236   7.337  0.00  0.00    +0.137 C 
ATOM      7  CB  ALA A   2      -5.192  -2.866   8.695  0.00  0.00    +0.030 C 
BRANCH   6   8
ATOM      8  C   ALA A   2      -5.301  -2.518   6.201  0.00  0.00    +0.227 C 
ATOM      9  O   ALA A   2      -4.669  -1.884   5.354  0.00  0.00    -0.286 OA
ENDBRANCH   6   8
ENDBRANCH   4   6
ENDBRANCH   1   2
BRANCH   1  10
ATOM     10  N   HIS A   1      -0.690  -2.191   6.362  0.00  0.00    -0.238 NA
ATOM     11  H   HIS A   1      -1.333  -1.383   6.241  0.00  0.00    +0.142 HD
ENDBRANCH   1  10
BRANCH   1  12
ATOM     12  CB  HIS A   1      -0.058  -2.413   8.752  0.00  0.00    +0.074 C 
BRANCH  12  13
ATOM     13  CG  HIS A   1      -0.496  -1.023   9.061  0.00  0.00    +0.082 A 
ATOM     14  ND1 HIS A   1      -1.508  -0.754   9.950  0.00  0.00    -0.227 NA
ATOM     15  CE1 HIS A   1      -1.675   0.553  10.041  0.00  0.00    +0.199 A 
ATOM     16  NE2 HIS A   1      -0.801   1.140   9.249  0.00  0.00    -0.221 NA
ATOM     17  CD2 HIS A   1      -0.043   0.176   8.631  0.00  0.00    +0.115 A 
ENDBRANCH  12  13
ENDBRANCH   1  12
TORSDOF 6
REMARK  Name = ../refined-set-2016/3oku/3oku_pocket.pdb
REMARK  163 active torsions:
REMARK  status: ('A' for Active; 'I' for Inactive)
REMARK    1  A    between atoms: _1  and  _3
REMARK    2  A    between atoms: _3  and  _4
REMARK    3  A    between atoms: _3  and  _6
REMARK    4  A    between atoms: _6  and  _7
REMARK    5  A    between atoms: _17  and  _19
REMARK    6  A    between atoms: _19  and  _20
REMARK    7  A    between atoms: _19  and  _22
REMARK    8  A    between atoms: _22  and  _23
REMARK    9  A    between atoms: _28  and  _29
REMARK   10  A    between atoms: _31  and  _33
REMARK   11  A    between atoms: _33  and  _34
REMARK   12  A    between atoms: _33  and  _36
REMARK   13  A    between atoms: _36  and  _37
REMARK   14  A    between atoms: _43  and  _45
REMARK   15  A    between atoms: _45  and  _46
REMARK   16  A    between atoms: _45  and  _48
REMARK   17  A    between atoms: _48  and  _49
REMARK   18  A    between atoms: _52  and  _53
REMARK   19  A    between atoms: _58  and  _60
REMARK   20  A    between atoms: _60  and  _61
REMARK   21  A    between atoms: _60  and  _63
REMARK   22  A    between atoms: _63  and  _64
REMARK   23  A    between atoms: _69  and  _71
REMARK   24  A    between atoms: _71  and  _72
REMARK   25  A    between atoms: _71  and  _74
REMARK   26  A    between atoms: _74  and  _75
REMARK   27  A    between atoms: _80  and  _82
REMARK   28  A    between atoms: _82  and  _83
REMARK   29  A    between atoms: _86  and  _88
REMARK   30  A    between atoms: _88  and  _89
REMARK   31  A    between atoms: _88  and  _91
REMARK   32  A    between atoms: _91  and  _92
REMARK   33  A    between atoms: _97  and  _99
REMARK   34  A    between atoms: _99  and  _100
REMARK   35  A    between atoms: _99  and  _102
REMARK   36  A    between atoms: _102  and  _103
REMARK   37  A    between atoms: _106  and  _108
REMARK   38  A    between atoms: _108  and  _109
REMARK   39  A    between atoms: _108  and  _111
REMARK   40  A    between atoms: _111  and  _112
REMARK   41  A    between atoms: _112  and  _113
REMARK   42  A    between atoms: _118  and  _120
REMARK   43  A    between atoms: _120  and  _121
REMARK   44  A    between atoms: _120  and  _123
REMARK   45  A    between atoms: _123  and  _124
REMARK   46  A    between atoms: _130  and  _132
REMARK   47  A    between atoms: _143  and  _146
REMARK   48  A    between atoms: _146  and  _147
REMARK   49  A    between atoms: _155  and  _156
REMARK   50  A    between atoms: _164  and  _166
REMARK   51  A    between atoms: _166  and  _167
REMARK   52  A    between atoms: _166  and  _169
REMARK   53  A    between atoms: _169  and  _170
REMARK   54  A    between atoms: _170  and  _171
REMARK   55  A    between atoms: _174  and  _176
REMARK   56  A    between atoms: _176  and  _177
REMARK   57  A    between atoms: _176  and  _179
REMARK   58  A    between atoms: _179  and  _180
REMARK   59  A    between atoms: _185  and  _187
REMARK   60  A    between atoms: _187  and  _188
REMARK   61  A    between atoms: _187  and  _190
REMARK   62  A    between atoms: _190  and  _191
REMARK   63  A    between atoms: _191  and  _192
REMARK   64  A    between atoms: _195  and  _197
REMARK   65  A    between atoms: _197  and  _198
REMARK   66  A    between atoms: _197  and  _200
REMARK   67  A    between atoms: _200  and  _201
REMARK   68  A    between atoms: _204  and  _206
REMARK   69  A    between atoms: _206  and  _207
REMARK   70  A    between atoms: _206  and  _209
REMARK   71  A    between atoms: _209  and  _210
REMARK   72  A    between atoms: _211  and  ZN_451
REMARK   73  A    between atoms: _215  and  _217
REMARK   74  A    between atoms: _217  and  _218
REMARK   75  A    between atoms: _217  and  _220
REMARK   76  A    between atoms: _220  and  _221
REMARK   77  A    between atoms: _224  and  _226
REMARK   78  A    between atoms: _226  and  _227
REMARK   79  A    between atoms: _226  and  _229
REMARK   80  A    between atoms: _232  and  _234
REMARK   81  A    between atoms: _234  and  _235
REMARK   82  A    between atoms: _234  and  _237
REMARK   83  A    between atoms: _237  and  _238
REMARK   84  A    between atoms: _243  and  _245
REMARK   85  A    between atoms: _245  and  _246
REMARK   86  A    between atoms: _245  and  _248
REMARK   87  A    between atoms: _248  and  _249
REMARK   88  A    between atoms: _255  and  _257
REMARK   89  A    between atoms: _257  and  _258
REMARK   90  A    between atoms: _260  and  _262
REMARK   91  A    between atoms: _262  and  _263
REMARK   92  A    between atoms: _262  and  _265
REMARK   93  A    between atoms: _265  and  _266
REMARK   94  A    between atoms: _266  and  _267
REMARK   95  A    between atoms: _267  and  _268
REMARK   96  A    between atoms: _268  and  _269
REMARK   97  A    between atoms: _273  and  _275
REMARK   98  A    between atoms: _275  and  _276
REMARK   99  A    between atoms: _275  and  _278
REMARK  100  A    between atoms: _281  and  _283
REMARK  101  A    between atoms: _283  and  _284
REMARK  102  A    between atoms: _283  and  _286
REMARK  103  A    between atoms: _286  and  _287
REMARK  104  A    between atoms: _287  and  _288
REMARK  105  A    between atoms: _293  and  _295
REMARK  106  A    between atoms: _295  and  _296
REMARK  107  A    between atoms: _295  and  _298
REMARK  108  A    between atoms: _298  and  _299
REMARK  109  A    between atoms: _302  and  _304
REMARK  110  A    between atoms: _304  and  _305
REMARK  111  A    between atoms: _308  and  _310
REMARK  112  A    between atoms: _310  and  _311
REMARK  113  A    between atoms: _310  and  _313
REMARK  114  A    between atoms: _316  and  _318
REMARK  115  A    between atoms: _318  and  _319
REMARK  116  A    between atoms: _318  and  _321
REMARK  117  A    between atoms: _321  and  _322
REMARK  118  A    between atoms: _325  and  _327
REMARK  119  A    between atoms: _327  and  _328
REMARK  120  A    between atoms: _327  and  _330
REMARK  121  A    between atoms: _330  and  _331
REMARK  122  A    between atoms: _333  and  _335
REMARK  123  A    between atoms: _335  and  _336
REMARK  124  A    between atoms: _335  and  _338
REMARK  125  A    between atoms: _338  and  _339
REMARK  126  A    between atoms: _342  and  _344
REMARK  127  A    between atoms: _344  and  _345
REMARK  128  A    between atoms: _344  and  _347
REMARK  129  A    between atoms: _347  and  _348
REMARK  130  A    between atoms: _351  and  _353
REMARK  131  A    between atoms: _353  and  _354
REMARK  132  A    between atoms: _353  and  _356
REMARK  133  A    between atoms: _356  and  _357
REMARK  134  A    between atoms: _361  and  _362
REMARK  135  A    between atoms: _368  and  _369
REMARK  136  A    between atoms: _374  and  _376
REMARK  137  A    between atoms: _376  and  _377
REMARK  138  A    between atoms: _376  and  _379
REMARK  139  A    between atoms: _379  and  _380
REMARK  140  A    between atoms: _383  and  _385
REMARK  141  A    between atoms: _385  and  _386
REMARK  142  A    between atoms: _385  and  _388
REMARK  143  A    between atoms: _388  and  _389
REMARK  144  A    between atoms: _392  and  _394
REMARK  145  A    between atoms: _394  and  _395
REMARK  146  A    between atoms: _394  and  _397
REMARK  147  A    between atoms: _399  and  _401
REMARK  148  A    between atoms: _401  and  _402
REMARK  149  A    between atoms: _401  and  _404
REMARK  150  A    between atoms: _407  and  _409
REMARK  151  A    between atoms: _409  and  _410
REMARK  152  A    between atoms: _409  and  _412
REMARK  153  A    between atoms: _412  and  _413
REMARK  154  A    between atoms: _423  and  _425
REMARK  155  A    between atoms: _425  and  _426
REMARK  156  A    between atoms: _425  and  _428
REMARK  157  A    between atoms: _428  and  _429
REMARK  158  A    between atoms: _434  and  _436
REMARK  159  A    between atoms: _436  and  _437
REMARK  160  A    between atoms: _436  and  _439
REMARK  161  A    between atoms: _439  and  _440
REMARK  162  A    between atoms: _440  and  _441
REMARK  163  A    between atoms: _441  and  _442
REMARK                            x       y       z     vdW  Elec       q    Type
REMARK                         _______ _______ _______ _____ _____    ______ ____
ROOT
ATOM      1  CB  ASN A   1      -8.489   2.593   6.921  0.00  0.00    +0.110 C 
ENDROOT
BRANCH   1   2
ATOM      2  CG  ASN A   1      -7.442   2.408   7.985  0.00  0.00    +0.221 C 
ATOM      3  OD1 ASN A   1      -7.331   1.362   8.602  0.00  0.00    -0.275 OA
ATOM      4  ND2 ASN A   1      -6.654   3.461   8.216  0.00  0.00    -0.329 N 
ATOM      5 HD21 ASN A   1      -5.913   3.406   8.944  0.00  0.00    +0.145 HD
ATOM      6 HD22 ASN A   1      -6.781   4.336   7.668  0.00  0.00    +0.145 HD
ENDBRANCH   1   2
BRANCH   1   7
ATOM      7  CA  ASN A   1      -9.225   1.308   6.571  0.00  0.00    +0.142 C 
BRANCH   7   8
ATOM      8  N   ASN A   1      -8.404   0.383   5.824  0.00  0.00    -0.239 NA
ATOM      9  H   ASN A   1      -7.854   0.733   5.014  0.00  0.00    +0.142 HD
ENDBRANCH   7   8
BRANCH   7  10
ATOM     10  C   ASN A   1     -10.428   1.712   5.727  0.00  0.00    +0.225 C 
ATOM     11  O   ASN A   1     -10.258   2.143   4.576  0.00  0.00    -0.287 OA
ENDBRANCH   7  10
ENDBRANCH   1   7
TORSDOF 4
REMARK  Name = ../refined-set-2016/3oku/3oku_pocket.pdb
REMARK  163 active torsions:
REMARK  status: ('A' for Active; 'I' for Inactive)
REMARK    1  A    between atoms: _1  and  _3
REMARK    2  A    between atoms: _3  and  _4
REMARK    3  A    between atoms: _3  and  _6
REMARK    4  A    between atoms: _6  and  _7
REMARK    5  A    between atoms: _17  and  _19
REMARK    6  A    between atoms: _19  and  _20
REMARK    7  A    between atoms: _19  and  _22
REMARK    8  A    between atoms: _22  and  _23
REMARK    9  A    between atoms: _28  and  _29
REMARK   10  A    between atoms: _31  and  _33
REMARK   11  A    between atoms: _33  and  _34
REMARK   12  A    between atoms: _33  and  _36
REMARK   13  A    between atoms: _36  and  _37
REMARK   14  A    between atoms: _43  and  _45
REMARK   15  A    between atoms: _45  and  _46
REMARK   16  A    between atoms: _45  and  _48
REMARK   17  A    between atoms: _48  and  _49
REMARK   18  A    between atoms: _52  and  _53
REMARK   19  A    between atoms: _58  and  _60
REMARK   20  A    between atoms: _60  and  _61
REMARK   21  A    between atoms: _60  and  _63
REMARK   22  A    between atoms: _63  and  _64
REMARK   23  A    between atoms: _69  and  _71
REMARK   24  A    between atoms: _71  and  _72
REMARK   25  A    between atoms: _71  and  _74
REMARK   26  A    between atoms: _74  and  _75
REMARK   27  A    between atoms: _80  and  _82
REMARK   28  A    between atoms: _82  and  _83
REMARK   29  A    between atoms: _86  and  _88
REMARK   30  A    between atoms: _88  and  _89
REMARK   31  A    between atoms: _88  and  _91
REMARK   32  A    between atoms: _91  and  _92
REMARK   33  A    between atoms: _97  and  _99
REMARK   34  A    between atoms: _99  and  _100
REMARK   35  A    between atoms: _99  and  _102
REMARK   36  A    between atoms: _102  and  _103
REMARK   37  A    between atoms: _106  and  _108
REMARK   38  A    between atoms: _108  and  _109
REMARK   39  A    between atoms: _108  and  _111
REMARK   40  A    between atoms: _111  and  _112
REMARK   41  A    between atoms: _112  and  _113
REMARK   42  A    between atoms: _118  and  _120
REMARK   43  A    between atoms: _120  and  _121
REMARK   44  A    between atoms: _120  and  _123
REMARK   45  A    between atoms: _123  and  _124
REMARK   46  A    between atoms: _130  and  _132
REMARK   47  A    between atoms: _143  and  _146
REMARK   48  A    between atoms: _146  and  _147
REMARK   49  A    between atoms: _155  and  _156
REMARK   50  A    between atoms: _164  and  _166
REMARK   51  A    between atoms: _166  and  _167
REMARK   52  A    between atoms: _166  and  _169
REMARK   53  A    between atoms: _169  and  _170
REMARK   54  A    between atoms: _170  and  _171
REMARK   55  A    between atoms: _174  and  _176
REMARK   56  A    between atoms: _176  and  _177
REMARK   57  A    between atoms: _176  and  _179
REMARK   58  A    between atoms: _179  and  _180
REMARK   59  A    between atoms: _185  and  _187
REMARK   60  A    between atoms: _187  and  _188
REMARK   61  A    between atoms: _187  and  _190
REMARK   62  A    between atoms: _190  and  _191
REMARK   63  A    between atoms: _191  and  _192
REMARK   64  A    between atoms: _195  and  _197
REMARK   65  A    between atoms: _197  and  _198
REMARK   66  A    between atoms: _197  and  _200
REMARK   67  A    between atoms: _200  and  _201
REMARK   68  A    between atoms: _204  and  _206
REMARK   69  A    between atoms: _206  and  _207
REMARK   70  A    between atoms: _206  and  _209
REMARK   71  A    between atoms: _209  and  _210
REMARK   72  A    between atoms: _211  and  ZN_451
REMARK   73  A    between atoms: _215  and  _217
REMARK   74  A    between atoms: _217  and  _218
REMARK   75  A    between atoms: _217  and  _220
REMARK   76  A    between atoms: _220  and  _221
REMARK   77  A    between atoms: _224  and  _226
REMARK   78  A    between atoms: _226  and  _227
REMARK   79  A    between atoms: _226  and  _229
REMARK   80  A    between atoms: _232  and  _234
REMARK   81  A    between atoms: _234  and  _235
REMARK   82  A    between atoms: _234  and  _237
REMARK   83  A    between atoms: _237  and  _238
REMARK   84  A    between atoms: _243  and  _245
REMARK   85  A    between atoms: _245  and  _246
REMARK   86  A    between atoms: _245  and  _248
REMARK   87  A    between atoms: _248  and  _249
REMARK   88  A    between atoms: _255  and  _257
REMARK   89  A    between atoms: _257  and  _258
REMARK   90  A    between atoms: _260  and  _262
REMARK   91  A    between atoms: _262  and  _263
REMARK   92  A    between atoms: _262  and  _265
REMARK   93  A    between atoms: _265  and  _266
REMARK   94  A    between atoms: _266  and  _267
REMARK   95  A    between atoms: _267  and  _268
REMARK   96  A    between atoms: _268  and  _269
REMARK   97  A    between atoms: _273  and  _275
REMARK   98  A    between atoms: _275  and  _276
REMARK   99  A    between atoms: _275  and  _278
REMARK  100  A    between atoms: _281  and  _283
REMARK  101  A    between atoms: _283  and  _284
REMARK  102  A    between atoms: _283  and  _286
REMARK  103  A    between atoms: _286  and  _287
REMARK  104  A    between atoms: _287  and  _288
REMARK  105  A    between atoms: _293  and  _295
REMARK  106  A    between atoms: _295  and  _296
REMARK  107  A    between atoms: _295  and  _298
REMARK  108  A    between atoms: _298  and  _299
REMARK  109  A    between atoms: _302  and  _304
REMARK  110  A    between atoms: _304  and  _305
REMARK  111  A    between atoms: _308  and  _310
REMARK  112  A    between atoms: _310  and  _311
REMARK  113  A    between atoms: _310  and  _313
REMARK  114  A    between atoms: _316  and  _318
REMARK  115  A    between atoms: _318  and  _319
REMARK  116  A    between atoms: _318  and  _321
REMARK  117  A    between atoms: _321  and  _322
REMARK  118  A    between atoms: _325  and  _327
REMARK  119  A    between atoms: _327  and  _328
REMARK  120  A    between atoms: _327  and  _330
REMARK  121  A    between atoms: _330  and  _331
REMARK  122  A    between atoms: _333  and  _335
REMARK  123  A    between atoms: _335  and  _336
REMARK  124  A    between atoms: _335  and  _338
REMARK  125  A    between atoms: _338  and  _339
REMARK  126  A    between atoms: _342  and  _344
REMARK  127  A    between atoms: _344  and  _345
REMARK  128  A    between atoms: _344  and  _347
REMARK  129  A    between atoms: _347  and  _348
REMARK  130  A    between atoms: _351  and  _353
REMARK  131  A    between atoms: _353  and  _354
REMARK  132  A    between atoms: _353  and  _356
REMARK  133  A    between atoms: _356  and  _357
REMARK  134  A    between atoms: _361  and  _362
REMARK  135  A    between atoms: _368  and  _369
REMARK  136  A    between atoms: _374  and  _376
REMARK  137  A    between atoms: _376  and  _377
REMARK  138  A    between atoms: _376  and  _379
REMARK  139  A    between atoms: _379  and  _380
REMARK  140  A    between atoms: _383  and  _385
REMARK  141  A    between atoms: _385  and  _386
REMARK  142  A    between atoms: _385  and  _388
REMARK  143  A    between atoms: _388  and  _389
REMARK  144  A    between atoms: _392  and  _394
REMARK  145  A    between atoms: _394  and  _395
REMARK  146  A    between atoms: _394  and  _397
REMARK  147  A    between atoms: _399  and  _401
REMARK  148  A    between atoms: _401  and  _402
REMARK  149  A    between atoms: _401  and  _404
REMARK  150  A    between atoms: _407  and  _409
REMARK  151  A    between atoms: _409  and  _410
REMARK  152  A    between atoms: _409  and  _412
REMARK  153  A    between atoms: _412  and  _413
REMARK  154  A    between atoms: _423  and  _425
REMARK  155  A    between atoms: _425  and  _426
REMARK  156  A    between atoms: _425  and  _428
REMARK  157  A    between atoms: _428  and  _429
REMARK  158  A    between atoms: _434  and  _436
REMARK  159  A    between atoms: _436  and  _437
REMARK  160  A    between atoms: _436  and  _439
REMARK  161  A    between atoms: _439  and  _440
REMARK  162  A    between atoms: _440  and  _441
REMARK  163  A    between atoms: _441  and  _442
REMARK                            x       y       z     vdW  Elec       q    Type
REMARK                         _______ _______ _______ _____ _____    ______ ____
ROOT
ATOM      1  C   UNK A   4     -10.288  -1.552  10.214  0.00  0.00    +0.000 C 
ATOM      2  C   UNK A   4     -10.336  -2.817  11.049  0.00  0.00    +0.000 C 
ATOM      3  O   UNK A   4     -10.977  -2.865  12.100  0.00  0.00    +0.000 OA
ATOM      4  N   VAL A   5      -9.640  -3.847  10.572  0.00  0.00    +0.000 N 
ATOM      5  CA  VAL A   5      -9.589  -5.135  11.245  0.00  0.00    +0.000 C 
ATOM      6  C   VAL A   5      -8.141  -5.596  11.422  0.00  0.00    +0.000 C 
ATOM      7  N   UNK A   6      -7.999  -6.579  12.310  0.00  0.00    +0.000 N 
ATOM      8  H   UNK A   6      -8.804  -6.795  12.932  0.00  0.00    +0.000 HD
ATOM      9  C   UNK A   6      -6.783  -7.370  12.462  0.00  0.00    +0.000 C 
ATOM     10  C   UNK A   6      -6.110  -7.134  13.829  0.00  0.00    +0.000 C 
ATOM     11  C   UNK A   6      -5.832  -5.692  14.111  0.00  0.00    +0.000 A 
ATOM     12  C   UNK A   6      -6.655  -4.692  14.508  0.00  0.00    +0.000 A 
ATOM     13  N   UNK A   6      -5.906  -3.537  14.556  0.00  0.00    +0.000 N 
ATOM     14 ZN   UNK A   6      -6.628  -1.732  15.164  0.00  0.00    +0.000 Zn
ATOM     15  N   UNK A   4      -7.397  -0.854  13.524  0.00  0.00    +0.000 N 
ATOM     16  C   UNK A   4      -7.890   0.360  13.346  0.00  0.00    +0.000 A 
ATOM     17  N   UNK A   4      -8.436   0.415  12.150  0.00  0.00    +0.000 NA
ATOM     18  C   UNK A   4      -8.271  -0.792  11.513  0.00  0.00    +0.000 A 
ATOM     19  C   UNK A   4      -7.631  -1.597  12.402  0.00  0.00    +0.000 A 
ATOM     20  C   UNK A   6      -4.664  -3.820  14.204  0.00  0.00    +0.000 A 
ATOM     21  N   UNK A   6      -4.599  -5.112  13.907  0.00  0.00    +0.000 NA
ATOM     22  O   VAL A   5      -7.221  -5.123  10.733  0.00  0.00    +0.000 OA
ATOM     23  H   VAL A   5      -9.113  -3.726   9.684  0.00  0.00    +0.000 HD
ATOM     24  C   UNK A   4      -8.844  -1.055  10.159  0.00  0.00    +0.000 C 
ENDROOT
BRANCH  14  25
ATOM     25  N   UNK A   6      -8.108  -2.359  16.437  0.00  0.00    +0.000 N 
ATOM     26  C   UNK A   6      -7.776  -3.279  17.320  0.00  0.00    +0.000 A 
ATOM     27  N   UNK A   6      -8.879  -3.707  17.916  0.00  0.00    +0.000 NA
ATOM     28  C   UNK A   6      -9.958  -3.054  17.377  0.00  0.00    +0.000 A 
ATOM     29  C   UNK A   6      -9.484  -2.215  16.436  0.00  0.00    +0.000 A 
BRANCH  29  30
ATOM     30  C   UNK A   6     -10.195  -1.254  15.559  0.00  0.00    +0.000 C 
BRANCH  30  31
ATOM     31  C   UNK A   6     -11.701  -1.540  15.485  0.00  0.00    +0.000 C 
BRANCH  31  32
ATOM     32  C   UNK A   6     -12.399  -0.367  14.815  0.00  0.00    +0.000 C 
ATOM     33  N   UNK A   4     -13.413   0.184  15.503  0.00  0.00    +0.000 N 
ATOM     34  H   UNK A   4     -13.725  -0.280  16.380  0.00  0.00    +0.000 HD
ATOM     35  O   UNK A   6     -12.044   0.005  13.703  0.00  0.00    +0.000 OA
BRANCH  33  36
ATOM     36  C   UNK A   4     -14.101   1.406  15.078  0.00  0.00    +0.000 C 
BRANCH  36  37
ATOM     37  C   UNK A   4     -13.473   2.542  15.859  0.00  0.00    +0.000 C 
ATOM     38  O   UNK A   4     -13.576   2.595  17.072  0.00  0.00    +0.000 OA
ATOM     39  N   VAL A   5     -12.795   3.430  15.133  0.00  0.00    +0.000 N 
ATOM     40  H   VAL A   5     -12.874   3.399  14.097  0.00  0.00    +0.000 HD
BRANCH  39  41
ATOM     41  CA  VAL A   5     -11.942   4.448  15.748  0.00  0.00    +0.000 C 
BRANCH  41  42
ATOM     42  C   VAL A   5     -12.657   5.786  15.769  0.00  0.00    +0.000 C 
ATOM     43  N   UNK A   6     -12.698   6.410  16.955  0.00  0.00    +0.000 N 
ATOM     44  H   UNK A   6     -12.212   5.977  17.766  0.00  0.00    +0.000 HD
ATOM     45  O   VAL A   5     -13.130   6.251  14.727  0.00  0.00    +0.000 OA
BRANCH  43  46
ATOM     46  C   UNK A   6     -13.399   7.672  17.148  0.00  0.00    +0.000 C 
BRANCH  46  47
ATOM     47  C   UNK A   6     -12.488   8.642  17.888  0.00  0.00    +0.000 C 
ATOM     48  O   UNK A   6     -11.722   8.236  18.745  0.00  0.00    +0.000 OA
ENDBRANCH  46  47
BRANCH  46  49
ATOM     49  C   UNK A   6     -14.664   7.489  18.007  0.00  0.00    +0.000 C 
BRANCH  49  50
ATOM     50  C   UNK A   6     -15.549   6.347  17.604  0.00  0.00    +0.000 A 
ATOM     51  N   UNK A   6     -15.222   5.028  17.860  0.00  0.00    +0.000 NA
ATOM     52  C   UNK A   6     -16.199   4.247  17.429  0.00  0.00    +0.000 A 
ATOM     53  N   UNK A   6     -17.137   5.008  16.890  0.00  0.00    +0.000 NA
ATOM     54  C   UNK A   6     -16.758   6.322  16.998  0.00  0.00    +0.000 A 
ENDBRANCH  49  50
ENDBRANCH  46  49
ENDBRANCH  43  46
ENDBRANCH  41  42
BRANCH  41  55
ATOM     55  CB  VAL A   5     -10.621   4.580  14.956  0.00  0.00    +0.000 C 
ATOM     56  CG2 VAL A   5      -9.730   5.649  15.574  0.00  0.00    +0.000 C 
ATOM     57  CG1 VAL A   5      -9.889   3.228  14.860  0.00  0.00    +0.000 C 
ENDBRANCH  41  55
ENDBRANCH  39  41
ENDBRANCH  36  37
BRANCH  36  58
ATOM     58  C   UNK A   4     -15.607   1.285  15.303  0.00  0.00    +0.000 C 
BRANCH  58  59
ATOM     59  C   UNK A   4     -16.306   0.234  14.431  0.00  0.00    +0.000 C 
ATOM     60  C   UNK A   4     -17.190  -0.655  15.246  0.00  0.00    +0.000 C 
ATOM     61  C   UNK A   4     -17.120   0.905  13.333  0.00  0.00    +0.000 C 
ENDBRANCH  58  59
ENDBRANCH  36  58
ENDBRANCH  33  36
ENDBRANCH  31  32
BRANCH  31  62
ATOM     62  N   UNK A   6     -11.909  -2.779  14.743  0.00  0.00    +0.000 N 
ATOM     63  C   LEU A   2     -12.542  -3.831  15.246  0.00  0.00    +0.000 C 
ATOM     64  O   LEU A   2     -12.936  -3.897  16.407  0.00  0.00    +0.000 OA
ATOM     65  H   UNK A   6     -11.543  -2.841  13.772  0.00  0.00    +0.000 HD
BRANCH  63  66
ATOM     66  CA  LEU A   2     -12.767  -4.970  14.278  0.00  0.00    +0.000 C 
BRANCH  66  67
ATOM     67  N   LEU A   2     -12.387  -6.229  14.890  0.00  0.00    +0.000 N 
ATOM     68  H   LEU A   2     -13.105  -6.725  15.456  0.00  0.00    +0.000 HD
ATOM     69  C   GLU A   1     -11.188  -6.797  14.781  0.00  0.00    +0.000 C 
ATOM     70  O   GLU A   1     -10.272  -6.374  14.048  0.00  0.00    +0.000 OA
BRANCH  69  71
ATOM     71  CA  GLU A   1     -10.997  -8.069  15.615  0.00  0.00    +0.000 C 
BRANCH  71  72
ATOM     72  N   GLU A   1     -10.515  -9.103  14.711  0.00  0.00    +0.000 NA
ATOM     73  H   GLU A   1      -9.897  -8.832  13.920  0.00  0.00    +0.000 HD
ENDBRANCH  71  72
BRANCH  71  74
ATOM     74  CB  GLU A   1     -10.011  -7.859  16.759  0.00  0.00    +0.000 C 
BRANCH  74  75
ATOM     75  CG  GLU A   1     -10.480  -6.862  17.816  0.00  0.00    +0.000 C 
BRANCH  75  76
ATOM     76  CD  GLU A   1      -9.551  -6.788  19.009  0.00  0.00    +0.000 C 
ATOM     77  OE2 GLU A   1      -9.465  -5.704  19.648  0.00  0.00    +0.000 OA
ATOM     78  OE1 GLU A   1      -8.923  -7.822  19.334  0.00  0.00    +0.000 OA
ENDBRANCH  75  76
ENDBRANCH  74  75
ENDBRANCH  71  74
ENDBRANCH  69  71
ENDBRANCH  66  67
BRANCH  66  79
ATOM     79  CB  LEU A   2     -14.256  -5.044  13.951  0.00  0.00    +0.000 C 
BRANCH  79  80
ATOM     80  CG  LEU A   2     -15.039  -3.780  13.573  0.00  0.00    +0.000 C 
ATOM     81  CD2 LEU A   2     -16.513  -4.147  13.322  0.00  0.00    +0.000 C 
ATOM     82  CD1 LEU A   2     -14.470  -3.141  12.341  0.00  0.00    +0.000 C 
ENDBRANCH  79  80
ENDBRANCH  66  79
ENDBRANCH  63  66
ENDBRANCH  31  62
ENDBRANCH  30  31
ENDBRANCH  29  30
ENDBRANCH  14  25
BRANCH   1  84
ATOM     83  C   UNK A   3     -11.711   0.421  10.156  0.00  0.00    +0.000 C 
ATOM     84  N   UNK A   4     -11.152  -0.567  10.845  0.00  0.00    +0.000 N 
ATOM     85  H   UNK A   4     -11.338  -0.638  11.866  0.00  0.00    +0.000 HD
ATOM     86  O   UNK A   3     -11.514   0.616   8.964  0.00  0.00    +0.000 OA
BRANCH  83  87
ATOM     87  C   UNK A   3     -12.661   1.288  10.969  0.00  0.00    +0.000 C 
BRANCH  87  90
ATOM     88  C   LEU A   2     -12.628   3.695  11.067  0.00  0.00    +0.000 C 
ATOM     89  O   LEU A   2     -12.680   3.728  12.287  0.00  0.00    +0.000 OA
ATOM     90  N   UNK A   3     -12.803   2.590  10.343  0.00  0.00    +0.000 N 
ATOM     91  H   UNK A   3     -13.041   2.660   9.333  0.00  0.00    +0.000 HD
BRANCH  88  92
ATOM     92  CA  LEU A   2     -12.397   4.962  10.297  0.00  0.00    +0.000 C 
BRANCH  92  94
ATOM     93  C   GLU A   1     -12.835   7.321  10.611  0.00  0.00    +0.000 C 
ATOM     94  N   LEU A   2     -12.660   6.111  11.151  0.00  0.00    +0.000 N 
ATOM     95  H   LEU A   2     -12.712   5.990  12.183  0.00  0.00    +0.000 HD
ATOM     96  O   GLU A   1     -12.780   7.509   9.403  0.00  0.00    +0.000 OA
BRANCH  93  97
ATOM     97  CA  GLU A   1     -13.125   8.484  11.561  0.00  0.00    +0.000 C 
BRANCH  97  98
ATOM     98  CB  GLU A   1     -11.807   9.146  12.063  0.00  0.00    +0.000 C 
ATOM     99  CG2 GLU A   1     -11.127   8.285  13.074  0.00  0.00    +0.000 C 
BRANCH  98 100
ATOM    100  CG1 GLU A   1     -10.890   9.489  10.882  0.00  0.00    +0.000 C 
ATOM    101  CD1 GLU A   1      -9.713  10.395  11.260  0.00  0.00    +0.000 C 
ENDBRANCH  98 100
ENDBRANCH  97  98
BRANCH  97 102
ATOM    102  N   GLU A   1     -13.998   8.105  12.669  0.00  0.00    +0.000 NA
ATOM    103  H   GLU A   1     -13.642   7.451  13.395  0.00  0.00    +0.000 HD
ENDBRANCH  97 102
ENDBRANCH  93  97
ENDBRANCH  92  94
BRANCH  92 104
ATOM    104  CB  LEU A   2     -10.961   4.970   9.755  0.00  0.00    +0.000 C 
BRANCH 104 105
ATOM    105  CG  LEU A   2      -9.876   5.098  10.820  0.00  0.00    +0.000 C 
BRANCH 105 106
ATOM    106  CD  LEU A   2      -9.147   3.816  11.155  0.00  0.00    +0.000 C 
ATOM    107  NE2 LEU A   2      -7.892   3.967  11.540  0.00  0.00    +0.000 N 
ATOM    108 HE21 LEU A   2      -7.330   3.137  11.820  0.00  0.00    +0.000 HD
ATOM    109 HE22 LEU A   2      -7.466   4.915  11.563  0.00  0.00    +0.000 HD
ATOM    110  OE1 LEU A   2      -9.700   2.716  11.109  0.00  0.00    +0.000 OA
ENDBRANCH 105 106
ENDBRANCH 104 105
ENDBRANCH  92 104
ENDBRANCH  88  92
ENDBRANCH  87  90
BRANCH  87 111
ATOM    111  C   UNK A   3     -14.006   0.599  11.238  0.00  0.00    +0.000 C 
BRANCH 111 112
ATOM    112  C   UNK A   3     -14.745   0.102  10.004  0.00  0.00    +0.000 A 
ATOM    113  C   UNK A   3     -15.852   0.795   9.539  0.00  0.00    +0.000 A 
ATOM    114  C   UNK A   3     -16.558   0.354   8.426  0.00  0.00    +0.000 A 
ATOM    115  C   UNK A   3     -16.174  -0.783   7.763  0.00  0.00    +0.000 A 
ATOM    116  C   UNK A   3     -15.065  -1.494   8.205  0.00  0.00    +0.000 A 
ATOM    117  C   UNK A   3     -14.363  -1.059   9.327  0.00  0.00    +0.000 A 
ENDBRANCH 111 112
ENDBRANCH  87 111
ENDBRANCH  83  87
ENDBRANCH   1  84
BRANCH   9 118
ATOM    118  C   UNK A   6      -7.208  -8.809  12.348  0.00  0.00    +0.000 C 
ATOM    119  O   UNK A   6      -8.281  -9.177  12.854  0.00  0.00    +0.000 OA
ENDBRANCH   9 118
BRANCH   5 120
ATOM    120  CB  VAL A   5     -10.297  -6.231  10.409  0.00  0.00    +0.000 C 
BRANCH 120 121
ATOM    121  CG  VAL A   5     -11.743  -5.951  10.080  0.00  0.00    +0.000 A 
ATOM    122  CD2 VAL A   5     -12.759  -6.603  10.754  0.00  0.00    +0.000 A 
ATOM    123  CE2 VAL A   5     -14.085  -6.381  10.435  0.00  0.00    +0.000 A 
ATOM    124  CZ  VAL A   5     -14.419  -5.511   9.399  0.00  0.00    +0.000 A 
ATOM    125  CE1 VAL A   5     -13.423  -4.884   8.679  0.00  0.00    +0.000 A 
ATOM    126  CD1 VAL A   5     -12.077  -5.110   9.025  0.00  0.00    +0.000 A 
ENDBRANCH 120 121
ENDBRANCH   5 120
TORSDOF 42
REMARK  Name = ../refined-set-2016/3oku/3oku_pocket.pdb
REMARK  163 active torsions:
REMARK  status: ('A' for Active; 'I' for Inactive)
REMARK    1  A    between atoms: _1  and  _3
REMARK    2  A    between atoms: _3  and  _4
REMARK    3  A    between atoms: _3  and  _6
REMARK    4  A    between atoms: _6  and  _7
REMARK    5  A    between atoms: _17  and  _19
REMARK    6  A    between atoms: _19  and  _20
REMARK    7  A    between atoms: _19  and  _22
REMARK    8  A    between atoms: _22  and  _23
REMARK    9  A    between atoms: _28  and  _29
REMARK   10  A    between atoms: _31  and  _33
REMARK   11  A    between atoms: _33  and  _34
REMARK   12  A    between atoms: _33  and  _36
REMARK   13  A    between atoms: _36  and  _37
REMARK   14  A    between atoms: _43  and  _45
REMARK   15  A    between atoms: _45  and  _46
REMARK   16  A    between atoms: _45  and  _48
REMARK   17  A    between atoms: _48  and  _49
REMARK   18  A    between atoms: _52  and  _53
REMARK   19  A    between atoms: _58  and  _60
REMARK   20  A    between atoms: _60  and  _61
REMARK   21  A    between atoms: _60  and  _63
REMARK   22  A    between atoms: _63  and  _64
REMARK   23  A    between atoms: _69  and  _71
REMARK   24  A    between atoms: _71  and  _72
REMARK   25  A    between atoms: _71  and  _74
REMARK   26  A    between atoms: _74  and  _75
REMARK   27  A    between atoms: _80  and  _82
REMARK   28  A    between atoms: _82  and  _83
REMARK   29  A    between atoms: _86  and  _88
REMARK   30  A    between atoms: _88  and  _89
REMARK   31  A    between atoms: _88  and  _91
REMARK   32  A    between atoms: _91  and  _92
REMARK   33  A    between atoms: _97  and  _99
REMARK   34  A    between atoms: _99  and  _100
REMARK   35  A    between atoms: _99  and  _102
REMARK   36  A    between atoms: _102  and  _103
REMARK   37  A    between atoms: _106  and  _108
REMARK   38  A    between atoms: _108  and  _109
REMARK   39  A    between atoms: _108  and  _111
REMARK   40  A    between atoms: _111  and  _112
REMARK   41  A    between atoms: _112  and  _113
REMARK   42  A    between atoms: _118  and  _120
REMARK   43  A    between atoms: _120  and  _121
REMARK   44  A    between atoms: _120  and  _123
REMARK   45  A    between atoms: _123  and  _124
REMARK   46  A    between atoms: _130  and  _132
REMARK   47  A    between atoms: _143  and  _146
REMARK   48  A    between atoms: _146  and  _147
REMARK   49  A    between atoms: _155  and  _156
REMARK   50  A    between atoms: _164  and  _166
REMARK   51  A    between atoms: _166  and  _167
REMARK   52  A    between atoms: _166  and  _169
REMARK   53  A    between atoms: _169  and  _170
REMARK   54  A    between atoms: _170  and  _171
REMARK   55  A    between atoms: _174  and  _176
REMARK   56  A    between atoms: _176  and  _177
REMARK   57  A    between atoms: _176  and  _179
REMARK   58  A    between atoms: _179  and  _180
REMARK   59  A    between atoms: _185  and  _187
REMARK   60  A    between atoms: _187  and  _188
REMARK   61  A    between atoms: _187  and  _190
REMARK   62  A    between atoms: _190  and  _191
REMARK   63  A    between atoms: _191  and  _192
REMARK   64  A    between atoms: _195  and  _197
REMARK   65  A    between atoms: _197  and  _198
REMARK   66  A    between atoms: _197  and  _200
REMARK   67  A    between atoms: _200  and  _201
REMARK   68  A    between atoms: _204  and  _206
REMARK   69  A    between atoms: _206  and  _207
REMARK   70  A    between atoms: _206  and  _209
REMARK   71  A    between atoms: _209  and  _210
REMARK   72  A    between atoms: _211  and  ZN_451
REMARK   73  A    between atoms: _215  and  _217
REMARK   74  A    between atoms: _217  and  _218
REMARK   75  A    between atoms: _217  and  _220
REMARK   76  A    between atoms: _220  and  _221
REMARK   77  A    between atoms: _224  and  _226
REMARK   78  A    between atoms: _226  and  _227
REMARK   79  A    between atoms: _226  and  _229
REMARK   80  A    between atoms: _232  and  _234
REMARK   81  A    between atoms: _234  and  _235
REMARK   82  A    between atoms: _234  and  _237
REMARK   83  A    between atoms: _237  and  _238
REMARK   84  A    between atoms: _243  and  _245
REMARK   85  A    between atoms: _245  and  _246
REMARK   86  A    between atoms: _245  and  _248
REMARK   87  A    between atoms: _248  and  _249
REMARK   88  A    between atoms: _255  and  _257
REMARK   89  A    between atoms: _257  and  _258
REMARK   90  A    between atoms: _260  and  _262
REMARK   91  A    between atoms: _262  and  _263
REMARK   92  A    between atoms: _262  and  _265
REMARK   93  A    between atoms: _265  and  _266
REMARK   94  A    between atoms: _266  and  _267
REMARK   95  A    between atoms: _267  and  _268
REMARK   96  A    between atoms: _268  and  _269
REMARK   97  A    between atoms: _273  and  _275
REMARK   98  A    between atoms: _275  and  _276
REMARK   99  A    between atoms: _275  and  _278
REMARK  100  A    between atoms: _281  and  _283
REMARK  101  A    between atoms: _283  and  _284
REMARK  102  A    between atoms: _283  and  _286
REMARK  103  A    between atoms: _286  and  _287
REMARK  104  A    between atoms: _287  and  _288
REMARK  105  A    between atoms: _293  and  _295
REMARK  106  A    between atoms: _295  and  _296
REMARK  107  A    between atoms: _295  and  _298
REMARK  108  A    between atoms: _298  and  _299
REMARK  109  A    between atoms: _302  and  _304
REMARK  110  A    between atoms: _304  and  _305
REMARK  111  A    between atoms: _308  and  _310
REMARK  112  A    between atoms: _310  and  _311
REMARK  113  A    between atoms: _310  and  _313
REMARK  114  A    between atoms: _316  and  _318
REMARK  115  A    between atoms: _318  and  _319
REMARK  116  A    between atoms: _318  and  _321
REMARK  117  A    between atoms: _321  and  _322
REMARK  118  A    between atoms: _325  and  _327
REMARK  119  A    between atoms: _327  and  _328
REMARK  120  A    between atoms: _327  and  _330
REMARK  121  A    between atoms: _330  and  _331
REMARK  122  A    between atoms: _333  and  _335
REMARK  123  A    between atoms: _335  and  _336
REMARK  124  A    between atoms: _335  and  _338
REMARK  125  A    between atoms: _338  and  _339
REMARK  126  A    between atoms: _342  and  _344
REMARK  127  A    between atoms: _344  and  _345
REMARK  128  A    between atoms: _344  and  _347
REMARK  129  A    between atoms: _347  and  _348
REMARK  130  A    between atoms: _351  and  _353
REMARK  131  A    between atoms: _353  and  _354
REMARK  132  A    between atoms: _353  and  _356
REMARK  133  A    between atoms: _356  and  _357
REMARK  134  A    between atoms: _361  and  _362
REMARK  135  A    between atoms: _368  and  _369
REMARK  136  A    between atoms: _374  and  _376
REMARK  137  A    between atoms: _376  and  _377
REMARK  138  A    between atoms: _376  and  _379
REMARK  139  A    between atoms: _379  and  _380
REMARK  140  A    between atoms: _383  and  _385
REMARK  141  A    between atoms: _385  and  _386
REMARK  142  A    between atoms: _385  and  _388
REMARK  143  A    between atoms: _388  and  _389
REMARK  144  A    between atoms: _392  and  _394
REMARK  145  A    between atoms: _394  and  _395
REMARK  146  A    between atoms: _394  and  _397
REMARK  147  A    between atoms: _399  and  _401
REMARK  148  A    between atoms: _401  and  _402
REMARK  149  A    between atoms: _401  and  _404
REMARK  150  A    between atoms: _407  and  _409
REMARK  151  A    between atoms: _409  and  _410
REMARK  152  A    between atoms: _409  and  _412
REMARK  153  A    between atoms: _412  and  _413
REMARK  154  A    between atoms: _423  and  _425
REMARK  155  A    between atoms: _425  and  _426
REMARK  156  A    between atoms: _425  and  _428
REMARK  157  A    between atoms: _428  and  _429
REMARK  158  A    between atoms: _434  and  _436
REMARK  159  A    between atoms: _436  and  _437
REMARK  160  A    between atoms: _436  and  _439
REMARK  161  A    between atoms: _439  and  _440
REMARK  162  A    between atoms: _440  and  _441
REMARK  163  A    between atoms: _441  and  _442
REMARK                            x       y       z     vdW  Elec       q    Type
REMARK                         _______ _______ _______ _____ _____    ______ ____
ROOT
ATOM      1  C   GLU A   1      -5.759  -8.589  20.928  0.00  0.00    +0.238 C 
ATOM      2  O   GLU A   1      -4.976  -9.169  21.687  0.00  0.00    -0.274 OA
ATOM      3  N   HIS A   2      -6.937  -8.135  21.347  0.00  0.00    -0.298 N 
ATOM      4  H   HIS A   2      -7.503  -7.509  20.739  0.00  0.00    +0.150 HD
ENDROOT
BRANCH   1   5
ATOM      5  CA  GLU A   1      -5.440  -8.420  19.433  0.00  0.00    +0.145 C 
BRANCH   5   6
ATOM      6  N   GLU A   1      -6.458  -9.101  18.626  0.00  0.00    -0.238 NA
ATOM      7  H   GLU A   1      -7.320  -8.578  18.371  0.00  0.00    +0.142 HD
ENDBRANCH   5   6
BRANCH   5   8
ATOM      8  CB  GLU A   1      -5.391  -6.948  19.023  0.00  0.00    +0.038 C 
BRANCH   8   9
ATOM      9  CG  GLU A   1      -4.978  -6.798  17.587  0.00  0.00    +0.116 C 
BRANCH   9  10
ATOM     10  CD  GLU A   1      -4.280  -5.506  17.286  0.00  0.00    +0.365 C 
ATOM     11  OE2 GLU A   1      -4.908  -4.447  17.488  0.00  0.00    -0.246 OA
ATOM     12  OE1 GLU A   1      -3.126  -5.549  16.827  0.00  0.00    -0.246 OA
ENDBRANCH   9  10
ENDBRANCH   8   9
ENDBRANCH   5   8
ENDBRANCH   1   5
BRANCH   3  13
ATOM     13  CA  HIS A   2      -7.427  -8.519  22.656  0.00  0.00    +0.143 C 
BRANCH  13  14
ATOM     14  C   HIS A   2      -7.727  -9.994  22.686  0.00  0.00    +0.227 C 
ATOM     15  O   HIS A   2      -8.054 -10.611  21.664  0.00  0.00    -0.286 OA
ENDBRANCH  13  14
BRANCH  13  16
ATOM     16  CB  HIS A   2      -8.656  -7.695  23.051  0.00  0.00    +0.075 C 
BRANCH  16  17
ATOM     17  CG  HIS A   2      -8.343  -6.244  23.203  0.00  0.00    +0.082 A 
ATOM     18  CD2 HIS A   2      -7.899  -5.535  24.269  0.00  0.00    +0.115 A 
ATOM     19  NE2 HIS A   2      -7.695  -4.247  23.838  0.00  0.00    -0.221 NA
ATOM     20  CE1 HIS A   2      -7.992  -4.170  22.558  0.00  0.00    +0.199 A 
ATOM     21  ND1 HIS A   2      -8.388  -5.363  22.150  0.00  0.00    -0.227 NA
ENDBRANCH  16  17
ENDBRANCH  13  16
ENDBRANCH   3  13
TORSDOF 9
REMARK  Name = ../refined-set-2016/3oku/3oku_pocket.pdb
REMARK  163 active torsions:
REMARK  status: ('A' for Active; 'I' for Inactive)
REMARK    1  A    between atoms: _1  and  _3
REMARK    2  A    between atoms: _3  and  _4
REMARK    3  A    between atoms: _3  and  _6
REMARK    4  A    between atoms: _6  and  _7
REMARK    5  A    between atoms: _17  and  _19
REMARK    6  A    between atoms: _19  and  _20
REMARK    7  A    between atoms: _19  and  _22
REMARK    8  A    between atoms: _22  and  _23
REMARK    9  A    between atoms: _28  and  _29
REMARK   10  A    between atoms: _31  and  _33
REMARK   11  A    between atoms: _33  and  _34
REMARK   12  A    between atoms: _33  and  _36
REMARK   13  A    between atoms: _36  and  _37
REMARK   14  A    between atoms: _43  and  _45
REMARK   15  A    between atoms: _45  and  _46
REMARK   16  A    between atoms: _45  and  _48
REMARK   17  A    between atoms: _48  and  _49
REMARK   18  A    between atoms: _52  and  _53
REMARK   19  A    between atoms: _58  and  _60
REMARK   20  A    between atoms: _60  and  _61
REMARK   21  A    between atoms: _60  and  _63
REMARK   22  A    between atoms: _63  and  _64
REMARK   23  A    between atoms: _69  and  _71
REMARK   24  A    between atoms: _71  and  _72
REMARK   25  A    between atoms: _71  and  _74
REMARK   26  A    between atoms: _74  and  _75
REMARK   27  A    between atoms: _80  and  _82
REMARK   28  A    between atoms: _82  and  _83
REMARK   29  A    between atoms: _86  and  _88
REMARK   30  A    between atoms: _88  and  _89
REMARK   31  A    between atoms: _88  and  _91
REMARK   32  A    between atoms: _91  and  _92
REMARK   33  A    between atoms: _97  and  _99
REMARK   34  A    between atoms: _99  and  _100
REMARK   35  A    between atoms: _99  and  _102
REMARK   36  A    between atoms: _102  and  _103
REMARK   37  A    between atoms: _106  and  _108
REMARK   38  A    between atoms: _108  and  _109
REMARK   39  A    between atoms: _108  and  _111
REMARK   40  A    between atoms: _111  and  _112
REMARK   41  A    between atoms: _112  and  _113
REMARK   42  A    between atoms: _118  and  _120
REMARK   43  A    between atoms: _120  and  _121
REMARK   44  A    between atoms: _120  and  _123
REMARK   45  A    between atoms: _123  and  _124
REMARK   46  A    between atoms: _130  and  _132
REMARK   47  A    between atoms: _143  and  _146
REMARK   48  A    between atoms: _146  and  _147
REMARK   49  A    between atoms: _155  and  _156
REMARK   50  A    between atoms: _164  and  _166
REMARK   51  A    between atoms: _166  and  _167
REMARK   52  A    between atoms: _166  and  _169
REMARK   53  A    between atoms: _169  and  _170
REMARK   54  A    between atoms: _170  and  _171
REMARK   55  A    between atoms: _174  and  _176
REMARK   56  A    between atoms: _176  and  _177
REMARK   57  A    between atoms: _176  and  _179
REMARK   58  A    between atoms: _179  and  _180
REMARK   59  A    between atoms: _185  and  _187
REMARK   60  A    between atoms: _187  and  _188
REMARK   61  A    between atoms: _187  and  _190
REMARK   62  A    between atoms: _190  and  _191
REMARK   63  A    between atoms: _191  and  _192
REMARK   64  A    between atoms: _195  and  _197
REMARK   65  A    between atoms: _197  and  _198
REMARK   66  A    between atoms: _197  and  _200
REMARK   67  A    between atoms: _200  and  _201
REMARK   68  A    between atoms: _204  and  _206
REMARK   69  A    between atoms: _206  and  _207
REMARK   70  A    between atoms: _206  and  _209
REMARK   71  A    between atoms: _209  and  _210
REMARK   72  A    between atoms: _211  and  ZN_451
REMARK   73  A    between atoms: _215  and  _217
REMARK   74  A    between atoms: _217  and  _218
REMARK   75  A    between atoms: _217  and  _220
REMARK   76  A    between atoms: _220  and  _221
REMARK   77  A    between atoms: _224  and  _226
REMARK   78  A    between atoms: _226  and  _227
REMARK   79  A    between atoms: _226  and  _229
REMARK   80  A    between atoms: _232  and  _234
REMARK   81  A    between atoms: _234  and  _235
REMARK   82  A    between atoms: _234  and  _237
REMARK   83  A    between atoms: _237  and  _238
REMARK   84  A    between atoms: _243  and  _245
REMARK   85  A    between atoms: _245  and  _246
REMARK   86  A    between atoms: _245  and  _248
REMARK   87  A    between atoms: _248  and  _249
REMARK   88  A    between atoms: _255  and  _257
REMARK   89  A    between atoms: _257  and  _258
REMARK   90  A    between atoms: _260  and  _262
REMARK   91  A    between atoms: _262  and  _263
REMARK   92  A    between atoms: _262  and  _265
REMARK   93  A    between atoms: _265  and  _266
REMARK   94  A    between atoms: _266  and  _267
REMARK   95  A    between atoms: _267  and  _268
REMARK   96  A    between atoms: _268  and  _269
REMARK   97  A    between atoms: _273  and  _275
REMARK   98  A    between atoms: _275  and  _276
REMARK   99  A    between atoms: _275  and  _278
REMARK  100  A    between atoms: _281  and  _283
REMARK  101  A    between atoms: _283  and  _284
REMARK  102  A    between atoms: _283  and  _286
REMARK  103  A    between atoms: _286  and  _287
REMARK  104  A    between atoms: _287  and  _288
REMARK  105  A    between atoms: _293  and  _295
REMARK  106  A    between atoms: _295  and  _296
REMARK  107  A    between atoms: _295  and  _298
REMARK  108  A    between atoms: _298  and  _299
REMARK  109  A    between atoms: _302  and  _304
REMARK  110  A    between atoms: _304  and  _305
REMARK  111  A    between atoms: _308  and  _310
REMARK  112  A    between atoms: _310  and  _311
REMARK  113  A    between atoms: _310  and  _313
REMARK  114  A    between atoms: _316  and  _318
REMARK  115  A    between atoms: _318  and  _319
REMARK  116  A    between atoms: _318  and  _321
REMARK  117  A    between atoms: _321  and  _322
REMARK  118  A    between atoms: _325  and  _327
REMARK  119  A    between atoms: _327  and  _328
REMARK  120  A    between atoms: _327  and  _330
REMARK  121  A    between atoms: _330  and  _331
REMARK  122  A    between atoms: _333  and  _335
REMARK  123  A    between atoms: _335  and  _336
REMARK  124  A    between atoms: _335  and  _338
REMARK  125  A    between atoms: _338  and  _339
REMARK  126  A    between atoms: _342  and  _344
REMARK  127  A    between atoms: _344  and  _345
REMARK  128  A    between atoms: _344  and  _347
REMARK  129  A    between atoms: _347  and  _348
REMARK  130  A    between atoms: _351  and  _353
REMARK  131  A    between atoms: _353  and  _354
REMARK  132  A    between atoms: _353  and  _356
REMARK  133  A    between atoms: _356  and  _357
REMARK  134  A    between atoms: _361  and  _362
REMARK  135  A    between atoms: _368  and  _369
REMARK  136  A    between atoms: _374  and  _376
REMARK  137  A    between atoms: _376  and  _377
REMARK  138  A    between atoms: _376  and  _379
REMARK  139  A    between atoms: _379  and  _380
REMARK  140  A    between atoms: _383  and  _385
REMARK  141  A    between atoms: _385  and  _386
REMARK  142  A    between atoms: _385  and  _388
REMARK  143  A    between atoms: _388  and  _389
REMARK  144  A    between atoms: _392  and  _394
REMARK  145  A    between atoms: _394  and  _395
REMARK  146  A    between atoms: _394  and  _397
REMARK  147  A    between atoms: _399  and  _401
REMARK  148  A    between atoms: _401  and  _402
REMARK  149  A    between atoms: _401  and  _404
REMARK  150  A    between atoms: _407  and  _409
REMARK  151  A    between atoms: _409  and  _410
REMARK  152  A    between atoms: _409  and  _412
REMARK  153  A    between atoms: _412  and  _413
REMARK  154  A    between atoms: _423  and  _425
REMARK  155  A    between atoms: _425  and  _426
REMARK  156  A    between atoms: _425  and  _428
REMARK  157  A    between atoms: _428  and  _429
REMARK  158  A    between atoms: _434  and  _436
REMARK  159  A    between atoms: _436  and  _437
REMARK  160  A    between atoms: _436  and  _439
REMARK  161  A    between atoms: _439  and  _440
REMARK  162  A    between atoms: _440  and  _441
REMARK  163  A    between atoms: _441  and  _442
REMARK                            x       y       z     vdW  Elec       q    Type
REMARK                         _______ _______ _______ _____ _____    ______ ____
ROOT
ATOM      1  CA  GLY A   2      -4.012  14.555  14.881  0.00  0.00    +0.176 C 
ENDROOT
BRANCH   1   4
ATOM      2  C   PHE A   1      -6.209  13.632  15.347  0.00  0.00    +0.239 C 
ATOM      3  O   PHE A   1      -5.768  13.029  16.333  0.00  0.00    -0.274 OA
ATOM      4  N   GLY A   2      -5.427  14.401  14.578  0.00  0.00    -0.296 N 
ATOM      5  H   GLY A   2      -5.835  14.892  13.757  0.00  0.00    +0.150 HD
BRANCH   2   6
ATOM      6  CA  PHE A   1      -7.674  13.472  14.951  0.00  0.00    +0.149 C 
BRANCH   6   7
ATOM      7  N   PHE A   1      -8.315  14.711  14.578  0.00  0.00    -0.238 NA
ATOM      8  H   PHE A   1      -8.693  14.815  13.615  0.00  0.00    +0.142 HD
ENDBRANCH   6   7
BRANCH   6   9
ATOM      9  CB  PHE A   1      -7.830  12.483  13.798  0.00  0.00    +0.053 C 
BRANCH   9  10
ATOM     10  CG  PHE A   1      -7.276  11.146  14.081  0.00  0.00    -0.020 A 
ATOM     11  CD2 PHE A   1      -8.022  10.197  14.764  0.00  0.00    -0.004 A 
ATOM     12  CE2 PHE A   1      -7.515   8.973  15.032  0.00  0.00    -0.000 A 
ATOM     13  CZ  PHE A   1      -6.248   8.663  14.641  0.00  0.00    -0.000 A 
ATOM     14  CE1 PHE A   1      -5.476   9.604  13.964  0.00  0.00    -0.000 A 
ATOM     15  CD1 PHE A   1      -5.992  10.833  13.694  0.00  0.00    -0.004 A 
ENDBRANCH   9  10
ENDBRANCH   6   9
ENDBRANCH   2   6
ENDBRANCH   1   4
BRANCH   1  16
ATOM     16  C   GLY A   2      -3.743  15.153  16.253  0.00  0.00    +0.243 C 
ATOM     17  O   GLY A   2      -2.778  14.803  16.927  0.00  0.00    -0.273 OA
ATOM     18  N   LYS A   3      -4.601  16.074  16.668  0.00  0.00    -0.298 N 
ATOM     19  H   LYS A   3      -5.368  16.381  16.037  0.00  0.00    +0.150 HD
BRANCH  18  20
ATOM     20  CA  LYS A   3      -4.485  16.662  17.994  0.00  0.00    +0.137 C 
BRANCH  20  21
ATOM     21  C   LYS A   3      -4.981  15.687  19.065  0.00  0.00    +0.227 C 
ATOM     22  O   LYS A   3      -4.389  15.566  20.132  0.00  0.00    -0.286 OA
ENDBRANCH  20  21
BRANCH  20  23
ATOM     23  CB  LYS A   3      -5.283  17.955  18.072  0.00  0.00    +0.028 C 
BRANCH  23  24
ATOM     24  CG  LYS A   3      -5.200  18.639  19.420  0.00  0.00    -0.000 C 
BRANCH  24  25
ATOM     25  CD  LYS A   3      -3.881  19.365  19.583  0.00  0.00    -0.024 C 
BRANCH  25  26
ATOM     26  CE  LYS A   3      -3.970  20.394  20.690  0.00  0.00    -0.086 C 
BRANCH  26  27
ATOM     27  NZ  LYS A   3      -4.397  19.757  21.959  0.00  0.00    +0.380 N 
ATOM     28  HZ1 LYS A   3      -4.452  20.478  22.706  0.00  0.00    -0.089 HD
ATOM     29  HZ2 LYS A   3      -3.706  19.028  22.229  0.00  0.00    -0.089 HD
ATOM     30  HZ3 LYS A   3      -5.331  19.319  21.828  0.00  0.00    -0.089 HD
ENDBRANCH  26  27
ENDBRANCH  25  26
ENDBRANCH  24  25
ENDBRANCH  23  24
ENDBRANCH  20  23
ENDBRANCH  18  20
ENDBRANCH   1  16
TORSDOF 13
REMARK  Name = ../refined-set-2016/3oku/3oku_pocket.pdb
REMARK  163 active torsions:
REMARK  status: ('A' for Active; 'I' for Inactive)
REMARK    1  A    between atoms: _1  and  _3
REMARK    2  A    between atoms: _3  and  _4
REMARK    3  A    between atoms: _3  and  _6
REMARK    4  A    between atoms: _6  and  _7
REMARK    5  A    between atoms: _17  and  _19
REMARK    6  A    between atoms: _19  and  _20
REMARK    7  A    between atoms: _19  and  _22
REMARK    8  A    between atoms: _22  and  _23
REMARK    9  A    between atoms: _28  and  _29
REMARK   10  A    between atoms: _31  and  _33
REMARK   11  A    between atoms: _33  and  _34
REMARK   12  A    between atoms: _33  and  _36
REMARK   13  A    between atoms: _36  and  _37
REMARK   14  A    between atoms: _43  and  _45
REMARK   15  A    between atoms: _45  and  _46
REMARK   16  A    between atoms: _45  and  _48
REMARK   17  A    between atoms: _48  and  _49
REMARK   18  A    between atoms: _52  and  _53
REMARK   19  A    between atoms: _58  and  _60
REMARK   20  A    between atoms: _60  and  _61
REMARK   21  A    between atoms: _60  and  _63
REMARK   22  A    between atoms: _63  and  _64
REMARK   23  A    between atoms: _69  and  _71
REMARK   24  A    between atoms: _71  and  _72
REMARK   25  A    between atoms: _71  and  _74
REMARK   26  A    between atoms: _74  and  _75
REMARK   27  A    between atoms: _80  and  _82
REMARK   28  A    between atoms: _82  and  _83
REMARK   29  A    between atoms: _86  and  _88
REMARK   30  A    between atoms: _88  and  _89
REMARK   31  A    between atoms: _88  and  _91
REMARK   32  A    between atoms: _91  and  _92
REMARK   33  A    between atoms: _97  and  _99
REMARK   34  A    between atoms: _99  and  _100
REMARK   35  A    between atoms: _99  and  _102
REMARK   36  A    between atoms: _102  and  _103
REMARK   37  A    between atoms: _106  and  _108
REMARK   38  A    between atoms: _108  and  _109
REMARK   39  A    between atoms: _108  and  _111
REMARK   40  A    between atoms: _111  and  _112
REMARK   41  A    between atoms: _112  and  _113
REMARK   42  A    between atoms: _118  and  _120
REMARK   43  A    between atoms: _120  and  _121
REMARK   44  A    between atoms: _120  and  _123
REMARK   45  A    between atoms: _123  and  _124
REMARK   46  A    between atoms: _130  and  _132
REMARK   47  A    between atoms: _143  and  _146
REMARK   48  A    between atoms: _146  and  _147
REMARK   49  A    between atoms: _155  and  _156
REMARK   50  A    between atoms: _164  and  _166
REMARK   51  A    between atoms: _166  and  _167
REMARK   52  A    between atoms: _166  and  _169
REMARK   53  A    between atoms: _169  and  _170
REMARK   54  A    between atoms: _170  and  _171
REMARK   55  A    between atoms: _174  and  _176
REMARK   56  A    between atoms: _176  and  _177
REMARK   57  A    between atoms: _176  and  _179
REMARK   58  A    between atoms: _179  and  _180
REMARK   59  A    between atoms: _185  and  _187
REMARK   60  A    between atoms: _187  and  _188
REMARK   61  A    between atoms: _187  and  _190
REMARK   62  A    between atoms: _190  and  _191
REMARK   63  A    between atoms: _191  and  _192
REMARK   64  A    between atoms: _195  and  _197
REMARK   65  A    between atoms: _197  and  _198
REMARK   66  A    between atoms: _197  and  _200
REMARK   67  A    between atoms: _200  and  _201
REMARK   68  A    between atoms: _204  and  _206
REMARK   69  A    between atoms: _206  and  _207
REMARK   70  A    between atoms: _206  and  _209
REMARK   71  A    between atoms: _209  and  _210
REMARK   72  A    between atoms: _211  and  ZN_451
REMARK   73  A    between atoms: _215  and  _217
REMARK   74  A    between atoms: _217  and  _218
REMARK   75  A    between atoms: _217  and  _220
REMARK   76  A    between atoms: _220  and  _221
REMARK   77  A    between atoms: _224  and  _226
REMARK   78  A    between atoms: _226  and  _227
REMARK   79  A    between atoms: _226  and  _229
REMARK   80  A    between atoms: _232  and  _234
REMARK   81  A    between atoms: _234  and  _235
REMARK   82  A    between atoms: _234  and  _237
REMARK   83  A    between atoms: _237  and  _238
REMARK   84  A    between atoms: _243  and  _245
REMARK   85  A    between atoms: _245  and  _246
REMARK   86  A    between atoms: _245  and  _248
REMARK   87  A    between atoms: _248  and  _249
REMARK   88  A    between atoms: _255  and  _257
REMARK   89  A    between atoms: _257  and  _258
REMARK   90  A    between atoms: _260  and  _262
REMARK   91  A    between atoms: _262  and  _263
REMARK   92  A    between atoms: _262  and  _265
REMARK   93  A    between atoms: _265  and  _266
REMARK   94  A    between atoms: _266  and  _267
REMARK   95  A    between atoms: _267  and  _268
REMARK   96  A    between atoms: _268  and  _269
REMARK   97  A    between atoms: _273  and  _275
REMARK   98  A    between atoms: _275  and  _276
REMARK   99  A    between atoms: _275  and  _278
REMARK  100  A    between atoms: _281  and  _283
REMARK  101  A    between atoms: _283  and  _284
REMARK  102  A    between atoms: _283  and  _286
REMARK  103  A    between atoms: _286  and  _287
REMARK  104  A    between atoms: _287  and  _288
REMARK  105  A    between atoms: _293  and  _295
REMARK  106  A    between atoms: _295  and  _296
REMARK  107  A    between atoms: _295  and  _298
REMARK  108  A    between atoms: _298  and  _299
REMARK  109  A    between atoms: _302  and  _304
REMARK  110  A    between atoms: _304  and  _305
REMARK  111  A    between atoms: _308  and  _310
REMARK  112  A    between atoms: _310  and  _311
REMARK  113  A    between atoms: _310  and  _313
REMARK  114  A    between atoms: _316  and  _318
REMARK  115  A    between atoms: _318  and  _319
REMARK  116  A    between atoms: _318  and  _321
REMARK  117  A    between atoms: _321  and  _322
REMARK  118  A    between atoms: _325  and  _327
REMARK  119  A    between atoms: _327  and  _328
REMARK  120  A    between atoms: _327  and  _330
REMARK  121  A    between atoms: _330  and  _331
REMARK  122  A    between atoms: _333  and  _335
REMARK  123  A    between atoms: _335  and  _336
REMARK  124  A    between atoms: _335  and  _338
REMARK  125  A    between atoms: _338  and  _339
REMARK  126  A    between atoms: _342  and  _344
REMARK  127  A    between atoms: _344  and  _345
REMARK  128  A    between atoms: _344  and  _347
REMARK  129  A    between atoms: _347  and  _348
REMARK  130  A    between atoms: _351  and  _353
REMARK  131  A    between atoms: _353  and  _354
REMARK  132  A    between atoms: _353  and  _356
REMARK  133  A    between atoms: _356  and  _357
REMARK  134  A    between atoms: _361  and  _362
REMARK  135  A    between atoms: _368  and  _369
REMARK  136  A    between atoms: _374  and  _376
REMARK  137  A    between atoms: _376  and  _377
REMARK  138  A    between atoms: _376  and  _379
REMARK  139  A    between atoms: _379  and  _380
REMARK  140  A    between atoms: _383  and  _385
REMARK  141  A    between atoms: _385  and  _386
REMARK  142  A    between atoms: _385  and  _388
REMARK  143  A    between atoms: _388  and  _389
REMARK  144  A    between atoms: _392  and  _394
REMARK  145  A    between atoms: _394  and  _395
REMARK  146  A    between atoms: _394  and  _397
REMARK  147  A    between atoms: _399  and  _401
REMARK  148  A    between atoms: _401  and  _402
REMARK  149  A    between atoms: _401  and  _404
REMARK  150  A    between atoms: _407  and  _409
REMARK  151  A    between atoms: _409  and  _410
REMARK  152  A    between atoms: _409  and  _412
REMARK  153  A    between atoms: _412  and  _413
REMARK  154  A    between atoms: _423  and  _425
REMARK  155  A    between atoms: _425  and  _426
REMARK  156  A    between atoms: _425  and  _428
REMARK  157  A    between atoms: _428  and  _429
REMARK  158  A    between atoms: _434  and  _436
REMARK  159  A    between atoms: _436  and  _437
REMARK  160  A    between atoms: _436  and  _439
REMARK  161  A    between atoms: _439  and  _440
REMARK  162  A    between atoms: _440  and  _441
REMARK  163  A    between atoms: _441  and  _442
REMARK                            x       y       z     vdW  Elec       q    Type
REMARK                         _______ _______ _______ _____ _____    ______ ____
ROOT
ATOM      1  C   VAL A   1      -2.818  11.735  20.448  0.00  0.00    +0.238 C 
ATOM      2  O   VAL A   1      -2.125  10.878  20.998  0.00  0.00    -0.274 OA
ATOM      3  N   GLN A   2      -2.661  13.042  20.649  0.00  0.00    -0.298 N 
ATOM      4  H   GLN A   2      -3.260  13.709  20.122  0.00  0.00    +0.150 HD
ENDROOT
BRANCH   1   5
ATOM      5  CA  VAL A   1      -3.940  11.316  19.507  0.00  0.00    +0.145 C 
BRANCH   5   6
ATOM      6  CB  VAL A   1      -3.300  10.595  18.297  0.00  0.00    +0.025 C 
ATOM      7  CG2 VAL A   1      -2.421  11.534  17.487  0.00  0.00    +0.002 C 
ATOM      8  CG1 VAL A   1      -4.353   9.978  17.447  0.00  0.00    +0.002 C 
ENDBRANCH   5   6
BRANCH   5   9
ATOM      9  N   VAL A   1      -4.838  12.425  19.142  0.00  0.00    -0.238 NA
ATOM     10  H   VAL A   1      -4.851  12.797  18.171  0.00  0.00    +0.142 HD
ENDBRANCH   5   9
ENDBRANCH   1   5
BRANCH   3  11
ATOM     11  CA  GLN A   2      -1.672  13.568  21.588  0.00  0.00    +0.137 C 
BRANCH  11  12
ATOM     12  C   GLN A   2      -2.230  13.726  23.004  0.00  0.00    +0.227 C 
ATOM     13  O   GLN A   2      -1.556  14.260  23.887  0.00  0.00    -0.286 OA
ENDBRANCH  11  12
BRANCH  11  14
ATOM     14  CB  GLN A   2      -1.140  14.921  21.089  0.00  0.00    +0.037 C 
BRANCH  14  15
ATOM     15  CG  GLN A   2      -0.495  14.843  19.713  0.00  0.00    +0.087 C 
BRANCH  15  16
ATOM     16  CD  GLN A   2      -0.037  16.199  19.212  0.00  0.00    +0.219 C 
ATOM     17  OE1 GLN A   2       0.771  16.870  19.857  0.00  0.00    -0.275 OA
ATOM     18  NE2 GLN A   2      -0.557  16.613  18.067  0.00  0.00    -0.329 N 
ATOM     19 HE21 GLN A   2      -0.287  17.539  17.678  0.00  0.00    +0.145 HD
ATOM     20 HE22 GLN A   2      -1.236  16.012  17.557  0.00  0.00    +0.145 HD
ENDBRANCH  15  16
ENDBRANCH  14  15
ENDBRANCH  11  14
ENDBRANCH   3  11
TORSDOF 8
REMARK  Name = ../refined-set-2016/3oku/3oku_pocket.pdb
REMARK  163 active torsions:
REMARK  status: ('A' for Active; 'I' for Inactive)
REMARK    1  A    between atoms: _1  and  _3
REMARK    2  A    between atoms: _3  and  _4
REMARK    3  A    between atoms: _3  and  _6
REMARK    4  A    between atoms: _6  and  _7
REMARK    5  A    between atoms: _17  and  _19
REMARK    6  A    between atoms: _19  and  _20
REMARK    7  A    between atoms: _19  and  _22
REMARK    8  A    between atoms: _22  and  _23
REMARK    9  A    between atoms: _28  and  _29
REMARK   10  A    between atoms: _31  and  _33
REMARK   11  A    between atoms: _33  and  _34
REMARK   12  A    between atoms: _33  and  _36
REMARK   13  A    between atoms: _36  and  _37
REMARK   14  A    between atoms: _43  and  _45
REMARK   15  A    between atoms: _45  and  _46
REMARK   16  A    between atoms: _45  and  _48
REMARK   17  A    between atoms: _48  and  _49
REMARK   18  A    between atoms: _52  and  _53
REMARK   19  A    between atoms: _58  and  _60
REMARK   20  A    between atoms: _60  and  _61
REMARK   21  A    between atoms: _60  and  _63
REMARK   22  A    between atoms: _63  and  _64
REMARK   23  A    between atoms: _69  and  _71
REMARK   24  A    between atoms: _71  and  _72
REMARK   25  A    between atoms: _71  and  _74
REMARK   26  A    between atoms: _74  and  _75
REMARK   27  A    between atoms: _80  and  _82
REMARK   28  A    between atoms: _82  and  _83
REMARK   29  A    between atoms: _86  and  _88
REMARK   30  A    between atoms: _88  and  _89
REMARK   31  A    between atoms: _88  and  _91
REMARK   32  A    between atoms: _91  and  _92
REMARK   33  A    between atoms: _97  and  _99
REMARK   34  A    between atoms: _99  and  _100
REMARK   35  A    between atoms: _99  and  _102
REMARK   36  A    between atoms: _102  and  _103
REMARK   37  A    between atoms: _106  and  _108
REMARK   38  A    between atoms: _108  and  _109
REMARK   39  A    between atoms: _108  and  _111
REMARK   40  A    between atoms: _111  and  _112
REMARK   41  A    between atoms: _112  and  _113
REMARK   42  A    between atoms: _118  and  _120
REMARK   43  A    between atoms: _120  and  _121
REMARK   44  A    between atoms: _120  and  _123
REMARK   45  A    between atoms: _123  and  _124
REMARK   46  A    between atoms: _130  and  _132
REMARK   47  A    between atoms: _143  and  _146
REMARK   48  A    between atoms: _146  and  _147
REMARK   49  A    between atoms: _155  and  _156
REMARK   50  A    between atoms: _164  and  _166
REMARK   51  A    between atoms: _166  and  _167
REMARK   52  A    between atoms: _166  and  _169
REMARK   53  A    between atoms: _169  and  _170
REMARK   54  A    between atoms: _170  and  _171
REMARK   55  A    between atoms: _174  and  _176
REMARK   56  A    between atoms: _176  and  _177
REMARK   57  A    between atoms: _176  and  _179
REMARK   58  A    between atoms: _179  and  _180
REMARK   59  A    between atoms: _185  and  _187
REMARK   60  A    between atoms: _187  and  _188
REMARK   61  A    between atoms: _187  and  _190
REMARK   62  A    between atoms: _190  and  _191
REMARK   63  A    between atoms: _191  and  _192
REMARK   64  A    between atoms: _195  and  _197
REMARK   65  A    between atoms: _197  and  _198
REMARK   66  A    between atoms: _197  and  _200
REMARK   67  A    between atoms: _200  and  _201
REMARK   68  A    between atoms: _204  and  _206
REMARK   69  A    between atoms: _206  and  _207
REMARK   70  A    between atoms: _206  and  _209
REMARK   71  A    between atoms: _209  and  _210
REMARK   72  A    between atoms: _211  and  ZN_451
REMARK   73  A    between atoms: _215  and  _217
REMARK   74  A    between atoms: _217  and  _218
REMARK   75  A    between atoms: _217  and  _220
REMARK   76  A    between atoms: _220  and  _221
REMARK   77  A    between atoms: _224  and  _226
REMARK   78  A    between atoms: _226  and  _227
REMARK   79  A    between atoms: _226  and  _229
REMARK   80  A    between atoms: _232  and  _234
REMARK   81  A    between atoms: _234  and  _235
REMARK   82  A    between atoms: _234  and  _237
REMARK   83  A    between atoms: _237  and  _238
REMARK   84  A    between atoms: _243  and  _245
REMARK   85  A    between atoms: _245  and  _246
REMARK   86  A    between atoms: _245  and  _248
REMARK   87  A    between atoms: _248  and  _249
REMARK   88  A    between atoms: _255  and  _257
REMARK   89  A    between atoms: _257  and  _258
REMARK   90  A    between atoms: _260  and  _262
REMARK   91  A    between atoms: _262  and  _263
REMARK   92  A    between atoms: _262  and  _265
REMARK   93  A    between atoms: _265  and  _266
REMARK   94  A    between atoms: _266  and  _267
REMARK   95  A    between atoms: _267  and  _268
REMARK   96  A    between atoms: _268  and  _269
REMARK   97  A    between atoms: _273  and  _275
REMARK   98  A    between atoms: _275  and  _276
REMARK   99  A    between atoms: _275  and  _278
REMARK  100  A    between atoms: _281  and  _283
REMARK  101  A    between atoms: _283  and  _284
REMARK  102  A    between atoms: _283  and  _286
REMARK  103  A    between atoms: _286  and  _287
REMARK  104  A    between atoms: _287  and  _288
REMARK  105  A    between atoms: _293  and  _295
REMARK  106  A    between atoms: _295  and  _296
REMARK  107  A    between atoms: _295  and  _298
REMARK  108  A    between atoms: _298  and  _299
REMARK  109  A    between atoms: _302  and  _304
REMARK  110  A    between atoms: _304  and  _305
REMARK  111  A    between atoms: _308  and  _310
REMARK  112  A    between atoms: _310  and  _311
REMARK  113  A    between atoms: _310  and  _313
REMARK  114  A    between atoms: _316  and  _318
REMARK  115  A    between atoms: _318  and  _319
REMARK  116  A    between atoms: _318  and  _321
REMARK  117  A    between atoms: _321  and  _322
REMARK  118  A    between atoms: _325  and  _327
REMARK  119  A    between atoms: _327  and  _328
REMARK  120  A    between atoms: _327  and  _330
REMARK  121  A    between atoms: _330  and  _331
REMARK  122  A    between atoms: _333  and  _335
REMARK  123  A    between atoms: _335  and  _336
REMARK  124  A    between atoms: _335  and  _338
REMARK  125  A    between atoms: _338  and  _339
REMARK  126  A    between atoms: _342  and  _344
REMARK  127  A    between atoms: _344  and  _345
REMARK  128  A    between atoms: _344  and  _347
REMARK  129  A    between atoms: _347  and  _348
REMARK  130  A    between atoms: _351  and  _353
REMARK  131  A    between atoms: _353  and  _354
REMARK  132  A    between atoms: _353  and  _356
REMARK  133  A    between atoms: _356  and  _357
REMARK  134  A    between atoms: _361  and  _362
REMARK  135  A    between atoms: _368  and  _369
REMARK  136  A    between atoms: _374  and  _376
REMARK  137  A    between atoms: _376  and  _377
REMARK  138  A    between atoms: _376  and  _379
REMARK  139  A    between atoms: _379  and  _380
REMARK  140  A    between atoms: _383  and  _385
REMARK  141  A    between atoms: _385  and  _386
REMARK  142  A    between atoms: _385  and  _388
REMARK  143  A    between atoms: _388  and  _389
REMARK  144  A    between atoms: _392  and  _394
REMARK  145  A    between atoms: _394  and  _395
REMARK  146  A    between atoms: _394  and  _397
REMARK  147  A    between atoms: _399  and  _401
REMARK  148  A    between atoms: _401  and  _402
REMARK  149  A    between atoms: _401  and  _404
REMARK  150  A    between atoms: _407  and  _409
REMARK  151  A    between atoms: _409  and  _410
REMARK  152  A    between atoms: _409  and  _412
REMARK  153  A    between atoms: _412  and  _413
REMARK  154  A    between atoms: _423  and  _425
REMARK  155  A    between atoms: _425  and  _426
REMARK  156  A    between atoms: _425  and  _428
REMARK  157  A    between atoms: _428  and  _429
REMARK  158  A    between atoms: _434  and  _436
REMARK  159  A    between atoms: _436  and  _437
REMARK  160  A    between atoms: _436  and  _439
REMARK  161  A    between atoms: _439  and  _440
REMARK  162  A    between atoms: _440  and  _441
REMARK  163  A    between atoms: _441  and  _442
REMARK                            x       y       z     vdW  Elec       q    Type
REMARK                         _______ _______ _______ _____ _____    ______ ____
ROOT
ATOM      1  C   ALA A   2     -12.369   4.857  20.734  0.00  0.00    +0.241 C 
ATOM      2  N   VAL A   3     -11.883   3.640  21.000  0.00  0.00    -0.297 N 
ATOM      3  H   VAL A   3     -11.471   3.443  21.934  0.00  0.00    +0.150 HD
ATOM      4  O   ALA A   2     -12.810   5.188  19.633  0.00  0.00    -0.273 OA
ENDROOT
BRANCH   1   5
ATOM      5  CA  ALA A   2     -12.275   5.855  21.860  0.00  0.00    +0.149 C 
ATOM      6  CB  ALA A   2     -13.647   6.277  22.310  0.00  0.00    +0.031 C 
BRANCH   5   9
ATOM      7  C   LEU A   1     -10.463   7.496  21.981  0.00  0.00    +0.238 C 
ATOM      8  O   LEU A   1     -10.151   7.221  23.129  0.00  0.00    -0.274 OA
ATOM      9  N   ALA A   2     -11.517   6.980  21.341  0.00  0.00    -0.297 N 
ATOM     10  H   ALA A   2     -11.806   7.401  20.435  0.00  0.00    +0.150 HD
BRANCH   7  11
ATOM     11  CA  LEU A   1      -9.604   8.430  21.172  0.00  0.00    +0.145 C 
BRANCH  11  12
ATOM     12  N   LEU A   1      -8.912   9.374  22.019  0.00  0.00    -0.238 NA
ATOM     13  H   LEU A   1      -8.308   9.019  22.788  0.00  0.00    +0.142 HD
ENDBRANCH  11  12
BRANCH  11  14
ATOM     14  CB  LEU A   1      -8.626   7.574  20.369  0.00  0.00    +0.026 C 
BRANCH  14  15
ATOM     15  CG  LEU A   1      -7.702   8.253  19.368  0.00  0.00    +0.002 C 
ATOM     16  CD2 LEU A   1      -8.330   9.312  18.507  0.00  0.00    +0.000 C 
ATOM     17  CD1 LEU A   1      -7.034   7.188  18.470  0.00  0.00    +0.000 C 
ENDBRANCH  14  15
ENDBRANCH  11  14
ENDBRANCH   7  11
ENDBRANCH   5   9
ENDBRANCH   1   5
BRANCH   2  18
ATOM     18  CA  VAL A   3     -11.925   2.590  19.997  0.00  0.00    +0.149 C 
BRANCH  18  19
ATOM     19  C   VAL A   3     -12.868   1.518  20.499  0.00  0.00    +0.241 C 
ATOM     20  O   VAL A   3     -12.690   0.966  21.604  0.00  0.00    -0.273 OA
ATOM     21  N   LEU A   4     -13.883   1.246  19.676  0.00  0.00    -0.298 N 
ATOM     22  H   LEU A   4     -14.002   1.835  18.827  0.00  0.00    +0.150 HD
BRANCH  21  23
ATOM     23  CA  LEU A   4     -14.824   0.174  19.905  0.00  0.00    +0.137 C 
BRANCH  23  24
ATOM     24  C   LEU A   4     -14.282  -1.075  19.223  0.00  0.00    +0.227 C 
ATOM     25  O   LEU A   4     -14.115  -1.127  17.996  0.00  0.00    -0.286 OA
ENDBRANCH  23  24
BRANCH  23  26
ATOM     26  CB  LEU A   4     -16.201   0.567  19.351  0.00  0.00    +0.028 C 
BRANCH  26  27
ATOM     27  CG  LEU A   4     -17.363  -0.384  19.534  0.00  0.00    +0.002 C 
ATOM     28  CD2 LEU A   4     -17.603  -0.665  20.986  0.00  0.00    +0.000 C 
ATOM     29  CD1 LEU A   4     -18.624   0.235  18.879  0.00  0.00    +0.000 C 
ENDBRANCH  26  27
ENDBRANCH  23  26
ENDBRANCH  21  23
ENDBRANCH  18  19
BRANCH  18  30
ATOM     30  CB  VAL A   3     -10.527   2.014  19.644  0.00  0.00    +0.027 C 
ATOM     31  CG2 VAL A   3      -9.593   3.116  19.187  0.00  0.00    +0.002 C 
ATOM     32  CG1 VAL A   3     -10.657   0.995  18.525  0.00  0.00    +0.002 C 
ENDBRANCH  18  30
ENDBRANCH   2  18
TORSDOF 13
REMARK  Name = ../refined-set-2016/3oku/3oku_pocket.pdb
REMARK  163 active torsions:
REMARK  status: ('A' for Active; 'I' for Inactive)
REMARK    1  A    between atoms: _1  and  _3
REMARK    2  A    between atoms: _3  and  _4
REMARK    3  A    between atoms: _3  and  _6
REMARK    4  A    between atoms: _6  and  _7
REMARK    5  A    between atoms: _17  and  _19
REMARK    6  A    between atoms: _19  and  _20
REMARK    7  A    between atoms: _19  and  _22
REMARK    8  A    between atoms: _22  and  _23
REMARK    9  A    between atoms: _28  and  _29
REMARK   10  A    between atoms: _31  and  _33
REMARK   11  A    between atoms: _33  and  _34
REMARK   12  A    between atoms: _33  and  _36
REMARK   13  A    between atoms: _36  and  _37
REMARK   14  A    between atoms: _43  and  _45
REMARK   15  A    between atoms: _45  and  _46
REMARK   16  A    between atoms: _45  and  _48
REMARK   17  A    between atoms: _48  and  _49
REMARK   18  A    between atoms: _52  and  _53
REMARK   19  A    between atoms: _58  and  _60
REMARK   20  A    between atoms: _60  and  _61
REMARK   21  A    between atoms: _60  and  _63
REMARK   22  A    between atoms: _63  and  _64
REMARK   23  A    between atoms: _69  and  _71
REMARK   24  A    between atoms: _71  and  _72
REMARK   25  A    between atoms: _71  and  _74
REMARK   26  A    between atoms: _74  and  _75
REMARK   27  A    between atoms: _80  and  _82
REMARK   28  A    between atoms: _82  and  _83
REMARK   29  A    between atoms: _86  and  _88
REMARK   30  A    between atoms: _88  and  _89
REMARK   31  A    between atoms: _88  and  _91
REMARK   32  A    between atoms: _91  and  _92
REMARK   33  A    between atoms: _97  and  _99
REMARK   34  A    between atoms: _99  and  _100
REMARK   35  A    between atoms: _99  and  _102
REMARK   36  A    between atoms: _102  and  _103
REMARK   37  A    between atoms: _106  and  _108
REMARK   38  A    between atoms: _108  and  _109
REMARK   39  A    between atoms: _108  and  _111
REMARK   40  A    between atoms: _111  and  _112
REMARK   41  A    between atoms: _112  and  _113
REMARK   42  A    between atoms: _118  and  _120
REMARK   43  A    between atoms: _120  and  _121
REMARK   44  A    between atoms: _120  and  _123
REMARK   45  A    between atoms: _123  and  _124
REMARK   46  A    between atoms: _130  and  _132
REMARK   47  A    between atoms: _143  and  _146
REMARK   48  A    between atoms: _146  and  _147
REMARK   49  A    between atoms: _155  and  _156
REMARK   50  A    between atoms: _164  and  _166
REMARK   51  A    between atoms: _166  and  _167
REMARK   52  A    between atoms: _166  and  _169
REMARK   53  A    between atoms: _169  and  _170
REMARK   54  A    between atoms: _170  and  _171
REMARK   55  A    between atoms: _174  and  _176
REMARK   56  A    between atoms: _176  and  _177
REMARK   57  A    between atoms: _176  and  _179
REMARK   58  A    between atoms: _179  and  _180
REMARK   59  A    between atoms: _185  and  _187
REMARK   60  A    between atoms: _187  and  _188
REMARK   61  A    between atoms: _187  and  _190
REMARK   62  A    between atoms: _190  and  _191
REMARK   63  A    between atoms: _191  and  _192
REMARK   64  A    between atoms: _195  and  _197
REMARK   65  A    between atoms: _197  and  _198
REMARK   66  A    between atoms: _197  and  _200
REMARK   67  A    between atoms: _200  and  _201
REMARK   68  A    between atoms: _204  and  _206
REMARK   69  A    between atoms: _206  and  _207
REMARK   70  A    between atoms: _206  and  _209
REMARK   71  A    between atoms: _209  and  _210
REMARK   72  A    between atoms: _211  and  ZN_451
REMARK   73  A    between atoms: _215  and  _217
REMARK   74  A    between atoms: _217  and  _218
REMARK   75  A    between atoms: _217  and  _220
REMARK   76  A    between atoms: _220  and  _221
REMARK   77  A    between atoms: _224  and  _226
REMARK   78  A    between atoms: _226  and  _227
REMARK   79  A    between atoms: _226  and  _229
REMARK   80  A    between atoms: _232  and  _234
REMARK   81  A    between atoms: _234  and  _235
REMARK   82  A    between atoms: _234  and  _237
REMARK   83  A    between atoms: _237  and  _238
REMARK   84  A    between atoms: _243  and  _245
REMARK   85  A    between atoms: _245  and  _246
REMARK   86  A    between atoms: _245  and  _248
REMARK   87  A    between atoms: _248  and  _249
REMARK   88  A    between atoms: _255  and  _257
REMARK   89  A    between atoms: _257  and  _258
REMARK   90  A    between atoms: _260  and  _262
REMARK   91  A    between atoms: _262  and  _263
REMARK   92  A    between atoms: _262  and  _265
REMARK   93  A    between atoms: _265  and  _266
REMARK   94  A    between atoms: _266  and  _267
REMARK   95  A    between atoms: _267  and  _268
REMARK   96  A    between atoms: _268  and  _269
REMARK   97  A    between atoms: _273  and  _275
REMARK   98  A    between atoms: _275  and  _276
REMARK   99  A    between atoms: _275  and  _278
REMARK  100  A    between atoms: _281  and  _283
REMARK  101  A    between atoms: _283  and  _284
REMARK  102  A    between atoms: _283  and  _286
REMARK  103  A    between atoms: _286  and  _287
REMARK  104  A    between atoms: _287  and  _288
REMARK  105  A    between atoms: _293  and  _295
REMARK  106  A    between atoms: _295  and  _296
REMARK  107  A    between atoms: _295  and  _298
REMARK  108  A    between atoms: _298  and  _299
REMARK  109  A    between atoms: _302  and  _304
REMARK  110  A    between atoms: _304  and  _305
REMARK  111  A    between atoms: _308  and  _310
REMARK  112  A    between atoms: _310  and  _311
REMARK  113  A    between atoms: _310  and  _313
REMARK  114  A    between atoms: _316  and  _318
REMARK  115  A    between atoms: _318  and  _319
REMARK  116  A    between atoms: _318  and  _321
REMARK  117  A    between atoms: _321  and  _322
REMARK  118  A    between atoms: _325  and  _327
REMARK  119  A    between atoms: _327  and  _328
REMARK  120  A    between atoms: _327  and  _330
REMARK  121  A    between atoms: _330  and  _331
REMARK  122  A    between atoms: _333  and  _335
REMARK  123  A    between atoms: _335  and  _336
REMARK  124  A    between atoms: _335  and  _338
REMARK  125  A    between atoms: _338  and  _339
REMARK  126  A    between atoms: _342  and  _344
REMARK  127  A    between atoms: _344  and  _345
REMARK  128  A    between atoms: _344  and  _347
REMARK  129  A    between atoms: _347  and  _348
REMARK  130  A    between atoms: _351  and  _353
REMARK  131  A    between atoms: _353  and  _354
REMARK  132  A    between atoms: _353  and  _356
REMARK  133  A    between atoms: _356  and  _357
REMARK  134  A    between atoms: _361  and  _362
REMARK  135  A    between atoms: _368  and  _369
REMARK  136  A    between atoms: _374  and  _376
REMARK  137  A    between atoms: _376  and  _377
REMARK  138  A    between atoms: _376  and  _379
REMARK  139  A    between atoms: _379  and  _380
REMARK  140  A    between atoms: _383  and  _385
REMARK  141  A    between atoms: _385  and  _386
REMARK  142  A    between atoms: _385  and  _388
REMARK  143  A    between atoms: _388  and  _389
REMARK  144  A    between atoms: _392  and  _394
REMARK  145  A    between atoms: _394  and  _395
REMARK  146  A    between atoms: _394  and  _397
REMARK  147  A    between atoms: _399  and  _401
REMARK  148  A    between atoms: _401  and  _402
REMARK  149  A    between atoms: _401  and  _404
REMARK  150  A    between atoms: _407  and  _409
REMARK  151  A    between atoms: _409  and  _410
REMARK  152  A    between atoms: _409  and  _412
REMARK  153  A    between atoms: _412  and  _413
REMARK  154  A    between atoms: _423  and  _425
REMARK  155  A    between atoms: _425  and  _426
REMARK  156  A    between atoms: _425  and  _428
REMARK  157  A    between atoms: _428  and  _429
REMARK  158  A    between atoms: _434  and  _436
REMARK  159  A    between atoms: _436  and  _437
REMARK  160  A    between atoms: _436  and  _439
REMARK  161  A    between atoms: _439  and  _440
REMARK  162  A    between atoms: _440  and  _441
REMARK  163  A    between atoms: _441  and  _442
REMARK                            x       y       z     vdW  Elec       q    Type
REMARK                         _______ _______ _______ _____ _____    ______ ____
ROOT
ATOM      1  C   THR A   4       1.171   1.184  16.290  0.00  0.00    +0.246 C 
ATOM      2  O   THR A   4       0.686   2.181  16.823  0.00  0.00    -0.273 OA
ATOM      3  N   PRO A   5       2.457   1.119  15.902  0.00  0.00    -0.272 N 
ATOM      4  CA  PRO A   5       3.272   2.327  16.033  0.00  0.00    +0.152 C 
ATOM      5  CB  PRO A   5       4.498   1.978  15.184  0.00  0.00    +0.031 C 
ATOM      6  CG  PRO A   5       4.679   0.510  15.428  0.00  0.00    +0.024 C 
ATOM      7  CD  PRO A   5       3.241  -0.006  15.359  0.00  0.00    +0.094 C 
ENDROOT
BRANCH   4   8
ATOM      8  C   PRO A   5       2.503   3.515  15.472  0.00  0.00    +0.244 C 
ATOM      9  N   PRO A   6       2.567   4.671  16.124  0.00  0.00    -0.272 N 
ATOM     10  CA  PRO A   6       3.473   5.037  17.232  0.00  0.00    +0.152 C 
ATOM     11  CB  PRO A   6       3.533   6.559  17.117  0.00  0.00    +0.031 C 
ATOM     12  CG  PRO A   6       2.226   6.946  16.517  0.00  0.00    +0.024 C 
ATOM     13  CD  PRO A   6       1.874   5.840  15.558  0.00  0.00    +0.094 C 
ATOM     14  O   PRO A   5       1.848   3.394  14.422  0.00  0.00    -0.273 OA
BRANCH  10  15
ATOM     15  C   PRO A   6       3.026   4.640  18.657  0.00  0.00    +0.241 C 
ATOM     16  O   PRO A   6       3.634   5.074  19.631  0.00  0.00    -0.273 OA
ATOM     17  N   LEU A   7       1.990   3.813  18.777  0.00  0.00    -0.297 N 
ATOM     18  H   LEU A   7       1.409   3.597  17.942  0.00  0.00    +0.150 HD
BRANCH  17  19
ATOM     19  CA  LEU A   7       1.652   3.200  20.068  0.00  0.00    +0.149 C 
BRANCH  19  20
ATOM     20  C   LEU A   7       1.273   4.212  21.149  0.00  0.00    +0.241 C 
ATOM     21  O   LEU A   7       1.400   3.945  22.346  0.00  0.00    -0.273 OA
ATOM     22  N   LEU A   8       0.728   5.343  20.709  0.00  0.00    -0.298 N 
ATOM     23  H   LEU A   8       0.520   5.448  19.695  0.00  0.00    +0.150 HD
BRANCH  22  24
ATOM     24  CA  LEU A   8       0.417   6.435  21.617  0.00  0.00    +0.137 C 
BRANCH  24  25
ATOM     25  C   LEU A   8      -0.647   6.038  22.633  0.00  0.00    +0.227 C 
ATOM     26  O   LEU A   8      -1.631   5.359  22.305  0.00  0.00    -0.286 OA
ENDBRANCH  24  25
BRANCH  24  27
ATOM     27  CB  LEU A   8      -0.023   7.686  20.833  0.00  0.00    +0.028 C 
BRANCH  27  28
ATOM     28  CG  LEU A   8       1.018   8.251  19.853  0.00  0.00    +0.002 C 
ATOM     29  CD2 LEU A   8       2.232   8.788  20.583  0.00  0.00    +0.000 C 
ATOM     30  CD1 LEU A   8       0.394   9.341  18.954  0.00  0.00    +0.000 C 
ENDBRANCH  27  28
ENDBRANCH  24  27
ENDBRANCH  22  24
ENDBRANCH  19  20
BRANCH  19  31
ATOM     31  CB  LEU A   7       2.783   2.287  20.569  0.00  0.00    +0.029 C 
BRANCH  31  32
ATOM     32  CG  LEU A   7       3.123   1.105  19.640  0.00  0.00    +0.002 C 
ATOM     33  CD2 LEU A   7       4.413   0.441  20.078  0.00  0.00    +0.000 C 
ATOM     34  CD1 LEU A   7       1.978   0.084  19.543  0.00  0.00    +0.000 C 
ENDBRANCH  31  32
ENDBRANCH  19  31
ENDBRANCH  17  19
ENDBRANCH  10  15
ENDBRANCH   4   8
BRANCH   1  35
ATOM     35  CA  THR A   4       0.296  -0.033  16.031  0.00  0.00    +0.176 C 
BRANCH  35  38
ATOM     36  C   THR A   3      -0.893  -1.240  17.791  0.00  0.00    +0.243 C 
ATOM     37  O   THR A   3      -0.302  -2.294  17.613  0.00  0.00    -0.273 OA
ATOM     38  N   THR A   4      -0.686  -0.131  17.090  0.00  0.00    -0.295 N 
ATOM     39  H   THR A   4      -1.258   0.709  17.313  0.00  0.00    +0.150 HD
BRANCH  36  40
ATOM     40  CA  THR A   3      -1.914  -1.131  18.911  0.00  0.00    +0.176 C 
BRANCH  40  43
ATOM     41  C   LEU A   2      -2.141   1.123  19.750  0.00  0.00    +0.241 C 
ATOM     42  O   LEU A   2      -1.176   0.943  20.517  0.00  0.00    -0.273 OA
ATOM     43  N   THR A   3      -2.566   0.177  18.927  0.00  0.00    -0.295 N 
ATOM     44  H   THR A   3      -3.366   0.365  18.290  0.00  0.00    +0.150 HD
BRANCH  41  45
ATOM     45  CA  LEU A   2      -2.866   2.454  19.707  0.00  0.00    +0.149 C 
BRANCH  45  48
ATOM     46  C   SER A   1      -3.418   2.343  22.061  0.00  0.00    +0.241 C 
ATOM     47  O   SER A   1      -4.197   1.393  21.872  0.00  0.00    -0.274 OA
ATOM     48  N   LEU A   2      -2.854   2.993  21.054  0.00  0.00    -0.297 N 
ATOM     49  H   LEU A   2      -2.393   3.908  21.233  0.00  0.00    +0.150 HD
BRANCH  46  50
ATOM     50  CA  SER A   1      -2.994   2.743  23.472  0.00  0.00    +0.174 C 
BRANCH  50  51
ATOM     51  N   SER A   1      -3.798   2.113  24.506  0.00  0.00    -0.236 NA
ATOM     52  H   SER A   1      -4.056   1.111  24.405  0.00  0.00    +0.142 HD
ENDBRANCH  50  51
BRANCH  50  53
ATOM     53  CB  SER A   1      -1.518   2.357  23.631  0.00  0.00    +0.163 C 
BRANCH  53  54
ATOM     54  OG  SER A   1      -1.264   0.989  23.244  0.00  0.00    -0.380 OA
ATOM     55  H   SER A   1      -1.513   0.864  22.294  0.00  0.00    +0.211 HD
ENDBRANCH  53  54
ENDBRANCH  50  53
ENDBRANCH  46  50
ENDBRANCH  45  48
BRANCH  45  56
ATOM     56  CB  LEU A   2      -2.110   3.367  18.742  0.00  0.00    +0.029 C 
BRANCH  56  57
ATOM     57  CG  LEU A   2      -2.458   4.852  18.696  0.00  0.00    +0.002 C 
ATOM     58  CD2 LEU A   2      -3.913   5.076  18.400  0.00  0.00    +0.000 C 
ATOM     59  CD1 LEU A   2      -1.564   5.567  17.665  0.00  0.00    +0.000 C 
ENDBRANCH  56  57
ENDBRANCH  45  56
ENDBRANCH  41  45
ENDBRANCH  40  43
BRANCH  40  60
ATOM     60  CB  THR A   3      -2.906  -2.275  18.762  0.00  0.00    +0.137 C 
ATOM     61  CG2 THR A   3      -3.956  -2.256  19.883  0.00  0.00    +0.034 C 
BRANCH  60  62
ATOM     62  OG1 THR A   3      -3.522  -2.213  17.473  0.00  0.00    -0.382 OA
ATOM     63  HG1 THR A   3      -4.166  -2.959  17.380  0.00  0.00    +0.210 HD
ENDBRANCH  60  62
ENDBRANCH  40  60
ENDBRANCH  36  40
ENDBRANCH  35  38
BRANCH  35  64
ATOM     64  CB  THR A   4      -0.405   0.177  14.692  0.00  0.00    +0.137 C 
ATOM     65  CG2 THR A   4       0.595   0.275  13.616  0.00  0.00    +0.034 C 
BRANCH  64  66
ATOM     66  OG1 THR A   4      -1.284  -0.927  14.432  0.00  0.00    -0.382 OA
ATOM     67  HG1 THR A   4      -1.738  -0.789  13.563  0.00  0.00    +0.210 HD
ENDBRANCH  64  66
ENDBRANCH  35  64
ENDBRANCH   1  35
TORSDOF 26
REMARK  Name = ../refined-set-2016/3oku/3oku_pocket.pdb
REMARK  163 active torsions:
REMARK  status: ('A' for Active; 'I' for Inactive)
REMARK    1  A    between atoms: _1  and  _3
REMARK    2  A    between atoms: _3  and  _4
REMARK    3  A    between atoms: _3  and  _6
REMARK    4  A    between atoms: _6  and  _7
REMARK    5  A    between atoms: _17  and  _19
REMARK    6  A    between atoms: _19  and  _20
REMARK    7  A    between atoms: _19  and  _22
REMARK    8  A    between atoms: _22  and  _23
REMARK    9  A    between atoms: _28  and  _29
REMARK   10  A    between atoms: _31  and  _33
REMARK   11  A    between atoms: _33  and  _34
REMARK   12  A    between atoms: _33  and  _36
REMARK   13  A    between atoms: _36  and  _37
REMARK   14  A    between atoms: _43  and  _45
REMARK   15  A    between atoms: _45  and  _46
REMARK   16  A    between atoms: _45  and  _48
REMARK   17  A    between atoms: _48  and  _49
REMARK   18  A    between atoms: _52  and  _53
REMARK   19  A    between atoms: _58  and  _60
REMARK   20  A    between atoms: _60  and  _61
REMARK   21  A    between atoms: _60  and  _63
REMARK   22  A    between atoms: _63  and  _64
REMARK   23  A    between atoms: _69  and  _71
REMARK   24  A    between atoms: _71  and  _72
REMARK   25  A    between atoms: _71  and  _74
REMARK   26  A    between atoms: _74  and  _75
REMARK   27  A    between atoms: _80  and  _82
REMARK   28  A    between atoms: _82  and  _83
REMARK   29  A    between atoms: _86  and  _88
REMARK   30  A    between atoms: _88  and  _89
REMARK   31  A    between atoms: _88  and  _91
REMARK   32  A    between atoms: _91  and  _92
REMARK   33  A    between atoms: _97  and  _99
REMARK   34  A    between atoms: _99  and  _100
REMARK   35  A    between atoms: _99  and  _102
REMARK   36  A    between atoms: _102  and  _103
REMARK   37  A    between atoms: _106  and  _108
REMARK   38  A    between atoms: _108  and  _109
REMARK   39  A    between atoms: _108  and  _111
REMARK   40  A    between atoms: _111  and  _112
REMARK   41  A    between atoms: _112  and  _113
REMARK   42  A    between atoms: _118  and  _120
REMARK   43  A    between atoms: _120  and  _121
REMARK   44  A    between atoms: _120  and  _123
REMARK   45  A    between atoms: _123  and  _124
REMARK   46  A    between atoms: _130  and  _132
REMARK   47  A    between atoms: _143  and  _146
REMARK   48  A    between atoms: _146  and  _147
REMARK   49  A    between atoms: _155  and  _156
REMARK   50  A    between atoms: _164  and  _166
REMARK   51  A    between atoms: _166  and  _167
REMARK   52  A    between atoms: _166  and  _169
REMARK   53  A    between atoms: _169  and  _170
REMARK   54  A    between atoms: _170  and  _171
REMARK   55  A    between atoms: _174  and  _176
REMARK   56  A    between atoms: _176  and  _177
REMARK   57  A    between atoms: _176  and  _179
REMARK   58  A    between atoms: _179  and  _180
REMARK   59  A    between atoms: _185  and  _187
REMARK   60  A    between atoms: _187  and  _188
REMARK   61  A    between atoms: _187  and  _190
REMARK   62  A    between atoms: _190  and  _191
REMARK   63  A    between atoms: _191  and  _192
REMARK   64  A    between atoms: _195  and  _197
REMARK   65  A    between atoms: _197  and  _198
REMARK   66  A    between atoms: _197  and  _200
REMARK   67  A    between atoms: _200  and  _201
REMARK   68  A    between atoms: _204  and  _206
REMARK   69  A    between atoms: _206  and  _207
REMARK   70  A    between atoms: _206  and  _209
REMARK   71  A    between atoms: _209  and  _210
REMARK   72  A    between atoms: _211  and  ZN_451
REMARK   73  A    between atoms: _215  and  _217
REMARK   74  A    between atoms: _217  and  _218
REMARK   75  A    between atoms: _217  and  _220
REMARK   76  A    between atoms: _220  and  _221
REMARK   77  A    between atoms: _224  and  _226
REMARK   78  A    between atoms: _226  and  _227
REMARK   79  A    between atoms: _226  and  _229
REMARK   80  A    between atoms: _232  and  _234
REMARK   81  A    between atoms: _234  and  _235
REMARK   82  A    between atoms: _234  and  _237
REMARK   83  A    between atoms: _237  and  _238
REMARK   84  A    between atoms: _243  and  _245
REMARK   85  A    between atoms: _245  and  _246
REMARK   86  A    between atoms: _245  and  _248
REMARK   87  A    between atoms: _248  and  _249
REMARK   88  A    between atoms: _255  and  _257
REMARK   89  A    between atoms: _257  and  _258
REMARK   90  A    between atoms: _260  and  _262
REMARK   91  A    between atoms: _262  and  _263
REMARK   92  A    between atoms: _262  and  _265
REMARK   93  A    between atoms: _265  and  _266
REMARK   94  A    between atoms: _266  and  _267
REMARK   95  A    between atoms: _267  and  _268
REMARK   96  A    between atoms: _268  and  _269
REMARK   97  A    between atoms: _273  and  _275
REMARK   98  A    between atoms: _275  and  _276
REMARK   99  A    between atoms: _275  and  _278
REMARK  100  A    between atoms: _281  and  _283
REMARK  101  A    between atoms: _283  and  _284
REMARK  102  A    between atoms: _283  and  _286
REMARK  103  A    between atoms: _286  and  _287
REMARK  104  A    between atoms: _287  and  _288
REMARK  105  A    between atoms: _293  and  _295
REMARK  106  A    between atoms: _295  and  _296
REMARK  107  A    between atoms: _295  and  _298
REMARK  108  A    between atoms: _298  and  _299
REMARK  109  A    between atoms: _302  and  _304
REMARK  110  A    between atoms: _304  and  _305
REMARK  111  A    between atoms: _308  and  _310
REMARK  112  A    between atoms: _310  and  _311
REMARK  113  A    between atoms: _310  and  _313
REMARK  114  A    between atoms: _316  and  _318
REMARK  115  A    between atoms: _318  and  _319
REMARK  116  A    between atoms: _318  and  _321
REMARK  117  A    between atoms: _321  and  _322
REMARK  118  A    between atoms: _325  and  _327
REMARK  119  A    between atoms: _327  and  _328
REMARK  120  A    between atoms: _327  and  _330
REMARK  121  A    between atoms: _330  and  _331
REMARK  122  A    between atoms: _333  and  _335
REMARK  123  A    between atoms: _335  and  _336
REMARK  124  A    between atoms: _335  and  _338
REMARK  125  A    between atoms: _338  and  _339
REMARK  126  A    between atoms: _342  and  _344
REMARK  127  A    between atoms: _344  and  _345
REMARK  128  A    between atoms: _344  and  _347
REMARK  129  A    between atoms: _347  and  _348
REMARK  130  A    between atoms: _351  and  _353
REMARK  131  A    between atoms: _353  and  _354
REMARK  132  A    between atoms: _353  and  _356
REMARK  133  A    between atoms: _356  and  _357
REMARK  134  A    between atoms: _361  and  _362
REMARK  135  A    between atoms: _368  and  _369
REMARK  136  A    between atoms: _374  and  _376
REMARK  137  A    between atoms: _376  and  _377
REMARK  138  A    between atoms: _376  and  _379
REMARK  139  A    between atoms: _379  and  _380
REMARK  140  A    between atoms: _383  and  _385
REMARK  141  A    between atoms: _385  and  _386
REMARK  142  A    between atoms: _385  and  _388
REMARK  143  A    between atoms: _388  and  _389
REMARK  144  A    between atoms: _392  and  _394
REMARK  145  A    between atoms: _394  and  _395
REMARK  146  A    between atoms: _394  and  _397
REMARK  147  A    between atoms: _399  and  _401
REMARK  148  A    between atoms: _401  and  _402
REMARK  149  A    between atoms: _401  and  _404
REMARK  150  A    between atoms: _407  and  _409
REMARK  151  A    between atoms: _409  and  _410
REMARK  152  A    between atoms: _409  and  _412
REMARK  153  A    between atoms: _412  and  _413
REMARK  154  A    between atoms: _423  and  _425
REMARK  155  A    between atoms: _425  and  _426
REMARK  156  A    between atoms: _425  and  _428
REMARK  157  A    between atoms: _428  and  _429
REMARK  158  A    between atoms: _434  and  _436
REMARK  159  A    between atoms: _436  and  _437
REMARK  160  A    between atoms: _436  and  _439
REMARK  161  A    between atoms: _439  and  _440
REMARK  162  A    between atoms: _440  and  _441
REMARK  163  A    between atoms: _441  and  _442
REMARK                            x       y       z     vdW  Elec       q    Type
REMARK                         _______ _______ _______ _____ _____    ______ ____
ROOT
ATOM      1  C   CYS A   1      -5.818   7.399  23.778  0.00  0.00    +0.239 C 
ATOM      2  N   VAL A   2      -5.969   6.107  24.092  0.00  0.00    -0.298 N 
ATOM      3  H   VAL A   2      -5.199   5.611  24.584  0.00  0.00    +0.150 HD
ATOM      4  O   CYS A   1      -6.748   8.107  23.407  0.00  0.00    -0.274 OA
ENDROOT
BRANCH   1   5
ATOM      5  CA  CYS A   1      -4.442   8.023  23.911  0.00  0.00    +0.156 C 
BRANCH   5   6
ATOM      6  N   CYS A   1      -3.394   7.024  24.104  0.00  0.00    -0.237 NA
ATOM      7  H   CYS A   1      -3.333   6.232  23.433  0.00  0.00    +0.142 HD
ENDBRANCH   5   6
BRANCH   5   8
ATOM      8  CB  CYS A   1      -4.153   8.829  22.648  0.00  0.00    +0.095 C 
ATOM      9  SG  CYS A   1      -4.109   7.833  21.131  0.00  0.00    -0.080 S 
ENDBRANCH   5   8
ENDBRANCH   1   5
BRANCH   2  10
ATOM     10  CA  VAL A   2      -7.200   5.371  23.757  0.00  0.00    +0.137 C 
BRANCH  10  11
ATOM     11  CB  VAL A   2      -6.910   4.118  22.901  0.00  0.00    +0.026 C 
ATOM     12  CG2 VAL A   2      -8.200   3.422  22.511  0.00  0.00    +0.002 C 
ATOM     13  CG1 VAL A   2      -6.120   4.493  21.651  0.00  0.00    +0.002 C 
ENDBRANCH  10  11
BRANCH  10  14
ATOM     14  C   VAL A   2      -7.962   4.899  24.969  0.00  0.00    +0.227 C 
ATOM     15  O   VAL A   2      -7.408   4.227  25.829  0.00  0.00    -0.286 OA
ENDBRANCH  10  14
ENDBRANCH   2  10
TORSDOF 6
REMARK  Name = ../refined-set-2016/3oku/3oku_pocket.pdb
REMARK  163 active torsions:
REMARK  status: ('A' for Active; 'I' for Inactive)
REMARK    1  A    between atoms: _1  and  _3
REMARK    2  A    between atoms: _3  and  _4
REMARK    3  A    between atoms: _3  and  _6
REMARK    4  A    between atoms: _6  and  _7
REMARK    5  A    between atoms: _17  and  _19
REMARK    6  A    between atoms: _19  and  _20
REMARK    7  A    between atoms: _19  and  _22
REMARK    8  A    between atoms: _22  and  _23
REMARK    9  A    between atoms: _28  and  _29
REMARK   10  A    between atoms: _31  and  _33
REMARK   11  A    between atoms: _33  and  _34
REMARK   12  A    between atoms: _33  and  _36
REMARK   13  A    between atoms: _36  and  _37
REMARK   14  A    between atoms: _43  and  _45
REMARK   15  A    between atoms: _45  and  _46
REMARK   16  A    between atoms: _45  and  _48
REMARK   17  A    between atoms: _48  and  _49
REMARK   18  A    between atoms: _52  and  _53
REMARK   19  A    between atoms: _58  and  _60
REMARK   20  A    between atoms: _60  and  _61
REMARK   21  A    between atoms: _60  and  _63
REMARK   22  A    between atoms: _63  and  _64
REMARK   23  A    between atoms: _69  and  _71
REMARK   24  A    between atoms: _71  and  _72
REMARK   25  A    between atoms: _71  and  _74
REMARK   26  A    between atoms: _74  and  _75
REMARK   27  A    between atoms: _80  and  _82
REMARK   28  A    between atoms: _82  and  _83
REMARK   29  A    between atoms: _86  and  _88
REMARK   30  A    between atoms: _88  and  _89
REMARK   31  A    between atoms: _88  and  _91
REMARK   32  A    between atoms: _91  and  _92
REMARK   33  A    between atoms: _97  and  _99
REMARK   34  A    between atoms: _99  and  _100
REMARK   35  A    between atoms: _99  and  _102
REMARK   36  A    between atoms: _102  and  _103
REMARK   37  A    between atoms: _106  and  _108
REMARK   38  A    between atoms: _108  and  _109
REMARK   39  A    between atoms: _108  and  _111
REMARK   40  A    between atoms: _111  and  _112
REMARK   41  A    between atoms: _112  and  _113
REMARK   42  A    between atoms: _118  and  _120
REMARK   43  A    between atoms: _120  and  _121
REMARK   44  A    between atoms: _120  and  _123
REMARK   45  A    between atoms: _123  and  _124
REMARK   46  A    between atoms: _130  and  _132
REMARK   47  A    between atoms: _143  and  _146
REMARK   48  A    between atoms: _146  and  _147
REMARK   49  A    between atoms: _155  and  _156
REMARK   50  A    between atoms: _164  and  _166
REMARK   51  A    between atoms: _166  and  _167
REMARK   52  A    between atoms: _166  and  _169
REMARK   53  A    between atoms: _169  and  _170
REMARK   54  A    between atoms: _170  and  _171
REMARK   55  A    between atoms: _174  and  _176
REMARK   56  A    between atoms: _176  and  _177
REMARK   57  A    between atoms: _176  and  _179
REMARK   58  A    between atoms: _179  and  _180
REMARK   59  A    between atoms: _185  and  _187
REMARK   60  A    between atoms: _187  and  _188
REMARK   61  A    between atoms: _187  and  _190
REMARK   62  A    between atoms: _190  and  _191
REMARK   63  A    between atoms: _191  and  _192
REMARK   64  A    between atoms: _195  and  _197
REMARK   65  A    between atoms: _197  and  _198
REMARK   66  A    between atoms: _197  and  _200
REMARK   67  A    between atoms: _200  and  _201
REMARK   68  A    between atoms: _204  and  _206
REMARK   69  A    between atoms: _206  and  _207
REMARK   70  A    between atoms: _206  and  _209
REMARK   71  A    between atoms: _209  and  _210
REMARK   72  A    between atoms: _211  and  ZN_451
REMARK   73  A    between atoms: _215  and  _217
REMARK   74  A    between atoms: _217  and  _218
REMARK   75  A    between atoms: _217  and  _220
REMARK   76  A    between atoms: _220  and  _221
REMARK   77  A    between atoms: _224  and  _226
REMARK   78  A    between atoms: _226  and  _227
REMARK   79  A    between atoms: _226  and  _229
REMARK   80  A    between atoms: _232  and  _234
REMARK   81  A    between atoms: _234  and  _235
REMARK   82  A    between atoms: _234  and  _237
REMARK   83  A    between atoms: _237  and  _238
REMARK   84  A    between atoms: _243  and  _245
REMARK   85  A    between atoms: _245  and  _246
REMARK   86  A    between atoms: _245  and  _248
REMARK   87  A    between atoms: _248  and  _249
REMARK   88  A    between atoms: _255  and  _257
REMARK   89  A    between atoms: _257  and  _258
REMARK   90  A    between atoms: _260  and  _262
REMARK   91  A    between atoms: _262  and  _263
REMARK   92  A    between atoms: _262  and  _265
REMARK   93  A    between atoms: _265  and  _266
REMARK   94  A    between atoms: _266  and  _267
REMARK   95  A    between atoms: _267  and  _268
REMARK   96  A    between atoms: _268  and  _269
REMARK   97  A    between atoms: _273  and  _275
REMARK   98  A    between atoms: _275  and  _276
REMARK   99  A    between atoms: _275  and  _278
REMARK  100  A    between atoms: _281  and  _283
REMARK  101  A    between atoms: _283  and  _284
REMARK  102  A    between atoms: _283  and  _286
REMARK  103  A    between atoms: _286  and  _287
REMARK  104  A    between atoms: _287  and  _288
REMARK  105  A    between atoms: _293  and  _295
REMARK  106  A    between atoms: _295  and  _296
REMARK  107  A    between atoms: _295  and  _298
REMARK  108  A    between atoms: _298  and  _299
REMARK  109  A    between atoms: _302  and  _304
REMARK  110  A    between atoms: _304  and  _305
REMARK  111  A    between atoms: _308  and  _310
REMARK  112  A    between atoms: _310  and  _311
REMARK  113  A    between atoms: _310  and  _313
REMARK  114  A    between atoms: _316  and  _318
REMARK  115  A    between atoms: _318  and  _319
REMARK  116  A    between atoms: _318  and  _321
REMARK  117  A    between atoms: _321  and  _322
REMARK  118  A    between atoms: _325  and  _327
REMARK  119  A    between atoms: _327  and  _328
REMARK  120  A    between atoms: _327  and  _330
REMARK  121  A    between atoms: _330  and  _331
REMARK  122  A    between atoms: _333  and  _335
REMARK  123  A    between atoms: _335  and  _336
REMARK  124  A    between atoms: _335  and  _338
REMARK  125  A    between atoms: _338  and  _339
REMARK  126  A    between atoms: _342  and  _344
REMARK  127  A    between atoms: _344  and  _345
REMARK  128  A    between atoms: _344  and  _347
REMARK  129  A    between atoms: _347  and  _348
REMARK  130  A    between atoms: _351  and  _353
REMARK  131  A    between atoms: _353  and  _354
REMARK  132  A    between atoms: _353  and  _356
REMARK  133  A    between atoms: _356  and  _357
REMARK  134  A    between atoms: _361  and  _362
REMARK  135  A    between atoms: _368  and  _369
REMARK  136  A    between atoms: _374  and  _376
REMARK  137  A    between atoms: _376  and  _377
REMARK  138  A    between atoms: _376  and  _379
REMARK  139  A    between atoms: _379  and  _380
REMARK  140  A    between atoms: _383  and  _385
REMARK  141  A    between atoms: _385  and  _386
REMARK  142  A    between atoms: _385  and  _388
REMARK  143  A    between atoms: _388  and  _389
REMARK  144  A    between atoms: _392  and  _394
REMARK  145  A    between atoms: _394  and  _395
REMARK  146  A    between atoms: _394  and  _397
REMARK  147  A    between atoms: _399  and  _401
REMARK  148  A    between atoms: _401  and  _402
REMARK  149  A    between atoms: _401  and  _404
REMARK  150  A    between atoms: _407  and  _409
REMARK  151  A    between atoms: _409  and  _410
REMARK  152  A    between atoms: _409  and  _412
REMARK  153  A    between atoms: _412  and  _413
REMARK  154  A    between atoms: _423  and  _425
REMARK  155  A    between atoms: _425  and  _426
REMARK  156  A    between atoms: _425  and  _428
REMARK  157  A    between atoms: _428  and  _429
REMARK  158  A    between atoms: _434  and  _436
REMARK  159  A    between atoms: _436  and  _437
REMARK  160  A    between atoms: _436  and  _439
REMARK  161  A    between atoms: _439  and  _440
REMARK  162  A    between atoms: _440  and  _441
REMARK  163  A    between atoms: _441  and  _442
REMARK                            x       y       z     vdW  Elec       q    Type
REMARK                         _______ _______ _______ _____ _____    ______ ____
ROOT
ATOM      1  CG  TRP A   1      -8.687  -0.069  24.041  0.00  0.00    -0.002 A 
ATOM      2  CD1 TRP A   1      -7.466   0.532  24.240  0.00  0.00    +0.068 A 
ATOM      3  NE1 TRP A   1      -6.738   0.503  23.075  0.00  0.00    -0.352 N 
ATOM      4  HE1 TRP A   1      -5.779   0.888  22.955  0.00  0.00    +0.166 HD
ATOM      5  CE2 TRP A   1      -7.472  -0.113  22.095  0.00  0.00    +0.056 A 
ATOM      6  CZ2 TRP A   1      -7.191  -0.346  20.764  0.00  0.00    +0.017 A 
ATOM      7  CH2 TRP A   1      -8.141  -1.004  20.019  0.00  0.00    +0.001 A 
ATOM      8  CZ3 TRP A   1      -9.377  -1.368  20.573  0.00  0.00    +0.000 A 
ATOM      9  CE3 TRP A   1      -9.666  -1.110  21.871  0.00  0.00    +0.001 A 
ATOM     10  CD2 TRP A   1      -8.714  -0.472  22.670  0.00  0.00    +0.013 A 
ENDROOT
BRANCH   1  11
ATOM     11  CB  TRP A   1      -9.801  -0.203  25.018  0.00  0.00    +0.053 C 
BRANCH  11  12
ATOM     12  CA  TRP A   1     -10.816   0.944  24.812  0.00  0.00    +0.137 C 
BRANCH  12  13
ATOM     13  N   TRP A   1     -10.365   2.142  25.493  0.00  0.00    -0.239 NA
ATOM     14  H   TRP A   1      -9.753   2.050  26.328  0.00  0.00    +0.142 HD
ENDBRANCH  12  13
BRANCH  12  15
ATOM     15  C   TRP A   1     -12.159   0.529  25.343  0.00  0.00    +0.224 C 
ATOM     16  O   TRP A   1     -12.359   0.475  26.547  0.00  0.00    -0.287 OA
ENDBRANCH  12  15
ENDBRANCH  11  12
ENDBRANCH   1  11
TORSDOF 4
REMARK  Name = ../refined-set-2016/3oku/3oku_pocket.pdb
REMARK  163 active torsions:
REMARK  status: ('A' for Active; 'I' for Inactive)
REMARK    1  A    between atoms: _1  and  _3
REMARK    2  A    between atoms: _3  and  _4
REMARK    3  A    between atoms: _3  and  _6
REMARK    4  A    between atoms: _6  and  _7
REMARK    5  A    between atoms: _17  and  _19
REMARK    6  A    between atoms: _19  and  _20
REMARK    7  A    between atoms: _19  and  _22
REMARK    8  A    between atoms: _22  and  _23
REMARK    9  A    between atoms: _28  and  _29
REMARK   10  A    between atoms: _31  and  _33
REMARK   11  A    between atoms: _33  and  _34
REMARK   12  A    between atoms: _33  and  _36
REMARK   13  A    between atoms: _36  and  _37
REMARK   14  A    between atoms: _43  and  _45
REMARK   15  A    between atoms: _45  and  _46
REMARK   16  A    between atoms: _45  and  _48
REMARK   17  A    between atoms: _48  and  _49
REMARK   18  A    between atoms: _52  and  _53
REMARK   19  A    between atoms: _58  and  _60
REMARK   20  A    between atoms: _60  and  _61
REMARK   21  A    between atoms: _60  and  _63
REMARK   22  A    between atoms: _63  and  _64
REMARK   23  A    between atoms: _69  and  _71
REMARK   24  A    between atoms: _71  and  _72
REMARK   25  A    between atoms: _71  and  _74
REMARK   26  A    between atoms: _74  and  _75
REMARK   27  A    between atoms: _80  and  _82
REMARK   28  A    between atoms: _82  and  _83
REMARK   29  A    between atoms: _86  and  _88
REMARK   30  A    between atoms: _88  and  _89
REMARK   31  A    between atoms: _88  and  _91
REMARK   32  A    between atoms: _91  and  _92
REMARK   33  A    between atoms: _97  and  _99
REMARK   34  A    between atoms: _99  and  _100
REMARK   35  A    between atoms: _99  and  _102
REMARK   36  A    between atoms: _102  and  _103
REMARK   37  A    between atoms: _106  and  _108
REMARK   38  A    between atoms: _108  and  _109
REMARK   39  A    between atoms: _108  and  _111
REMARK   40  A    between atoms: _111  and  _112
REMARK   41  A    between atoms: _112  and  _113
REMARK   42  A    between atoms: _118  and  _120
REMARK   43  A    between atoms: _120  and  _121
REMARK   44  A    between atoms: _120  and  _123
REMARK   45  A    between atoms: _123  and  _124
REMARK   46  A    between atoms: _130  and  _132
REMARK   47  A    between atoms: _143  and  _146
REMARK   48  A    between atoms: _146  and  _147
REMARK   49  A    between atoms: _155  and  _156
REMARK   50  A    between atoms: _164  and  _166
REMARK   51  A    between atoms: _166  and  _167
REMARK   52  A    between atoms: _166  and  _169
REMARK   53  A    between atoms: _169  and  _170
REMARK   54  A    between atoms: _170  and  _171
REMARK   55  A    between atoms: _174  and  _176
REMARK   56  A    between atoms: _176  and  _177
REMARK   57  A    between atoms: _176  and  _179
REMARK   58  A    between atoms: _179  and  _180
REMARK   59  A    between atoms: _185  and  _187
REMARK   60  A    between atoms: _187  and  _188
REMARK   61  A    between atoms: _187  and  _190
REMARK   62  A    between atoms: _190  and  _191
REMARK   63  A    between atoms: _191  and  _192
REMARK   64  A    between atoms: _195  and  _197
REMARK   65  A    between atoms: _197  and  _198
REMARK   66  A    between atoms: _197  and  _200
REMARK   67  A    between atoms: _200  and  _201
REMARK   68  A    between atoms: _204  and  _206
REMARK   69  A    between atoms: _206  and  _207
REMARK   70  A    between atoms: _206  and  _209
REMARK   71  A    between atoms: _209  and  _210
REMARK   72  A    between atoms: _211  and  ZN_451
REMARK   73  A    between atoms: _215  and  _217
REMARK   74  A    between atoms: _217  and  _218
REMARK   75  A    between atoms: _217  and  _220
REMARK   76  A    between atoms: _220  and  _221
REMARK   77  A    between atoms: _224  and  _226
REMARK   78  A    between atoms: _226  and  _227
REMARK   79  A    between atoms: _226  and  _229
REMARK   80  A    between atoms: _232  and  _234
REMARK   81  A    between atoms: _234  and  _235
REMARK   82  A    between atoms: _234  and  _237
REMARK   83  A    between atoms: _237  and  _238
REMARK   84  A    between atoms: _243  and  _245
REMARK   85  A    between atoms: _245  and  _246
REMARK   86  A    between atoms: _245  and  _248
REMARK   87  A    between atoms: _248  and  _249
REMARK   88  A    between atoms: _255  and  _257
REMARK   89  A    between atoms: _257  and  _258
REMARK   90  A    between atoms: _260  and  _262
REMARK   91  A    between atoms: _262  and  _263
REMARK   92  A    between atoms: _262  and  _265
REMARK   93  A    between atoms: _265  and  _266
REMARK   94  A    between atoms: _266  and  _267
REMARK   95  A    between atoms: _267  and  _268
REMARK   96  A    between atoms: _268  and  _269
REMARK   97  A    between atoms: _273  and  _275
REMARK   98  A    between atoms: _275  and  _276
REMARK   99  A    between atoms: _275  and  _278
REMARK  100  A    between atoms: _281  and  _283
REMARK  101  A    between atoms: _283  and  _284
REMARK  102  A    between atoms: _283  and  _286
REMARK  103  A    between atoms: _286  and  _287
REMARK  104  A    between atoms: _287  and  _288
REMARK  105  A    between atoms: _293  and  _295
REMARK  106  A    between atoms: _295  and  _296
REMARK  107  A    between atoms: _295  and  _298
REMARK  108  A    between atoms: _298  and  _299
REMARK  109  A    between atoms: _302  and  _304
REMARK  110  A    between atoms: _304  and  _305
REMARK  111  A    between atoms: _308  and  _310
REMARK  112  A    between atoms: _310  and  _311
REMARK  113  A    between atoms: _310  and  _313
REMARK  114  A    between atoms: _316  and  _318
REMARK  115  A    between atoms: _318  and  _319
REMARK  116  A    between atoms: _318  and  _321
REMARK  117  A    between atoms: _321  and  _322
REMARK  118  A    between atoms: _325  and  _327
REMARK  119  A    between atoms: _327  and  _328
REMARK  120  A    between atoms: _327  and  _330
REMARK  121  A    between atoms: _330  and  _331
REMARK  122  A    between atoms: _333  and  _335
REMARK  123  A    between atoms: _335  and  _336
REMARK  124  A    between atoms: _335  and  _338
REMARK  125  A    between atoms: _338  and  _339
REMARK  126  A    between atoms: _342  and  _344
REMARK  127  A    between atoms: _344  and  _345
REMARK  128  A    between atoms: _344  and  _347
REMARK  129  A    between atoms: _347  and  _348
REMARK  130  A    between atoms: _351  and  _353
REMARK  131  A    between atoms: _353  and  _354
REMARK  132  A    between atoms: _353  and  _356
REMARK  133  A    between atoms: _356  and  _357
REMARK  134  A    between atoms: _361  and  _362
REMARK  135  A    between atoms: _368  and  _369
REMARK  136  A    between atoms: _374  and  _376
REMARK  137  A    between atoms: _376  and  _377
REMARK  138  A    between atoms: _376  and  _379
REMARK  139  A    between atoms: _379  and  _380
REMARK  140  A    between atoms: _383  and  _385
REMARK  141  A    between atoms: _385  and  _386
REMARK  142  A    between atoms: _385  and  _388
REMARK  143  A    between atoms: _388  and  _389
REMARK  144  A    between atoms: _392  and  _394
REMARK  145  A    between atoms: _394  and  _395
REMARK  146  A    between atoms: _394  and  _397
REMARK  147  A    between atoms: _399  and  _401
REMARK  148  A    between atoms: _401  and  _402
REMARK  149  A    between atoms: _401  and  _404
REMARK  150  A    between atoms: _407  and  _409
REMARK  151  A    between atoms: _409  and  _410
REMARK  152  A    between atoms: _409  and  _412
REMARK  153  A    between atoms: _412  and  _413
REMARK  154  A    between atoms: _423  and  _425
REMARK  155  A    between atoms: _425  and  _426
REMARK  156  A    between atoms: _425  and  _428
REMARK  157  A    between atoms: _428  and  _429
REMARK  158  A    between atoms: _434  and  _436
REMARK  159  A    between atoms: _436  and  _437
REMARK  160  A    between atoms: _436  and  _439
REMARK  161  A    between atoms: _439  and  _440
REMARK  162  A    between atoms: _440  and  _441
REMARK  163  A    between atoms: _441  and  _442
REMARK                            x       y       z     vdW  Elec       q    Type
REMARK                         _______ _______ _______ _____ _____    ______ ____
ROOT
ATOM      1  CB  ASN A   1      -1.948  -7.368  10.335  0.00  0.00    +0.110 C 
ENDROOT
BRANCH   1   2
ATOM      2  CG  ASN A   1      -3.457  -7.490  10.184  0.00  0.00    +0.221 C 
ATOM      3  OD1 ASN A   1      -4.077  -8.392  10.740  0.00  0.00    -0.275 OA
ATOM      4  ND2 ASN A   1      -4.066  -6.575   9.414  0.00  0.00    -0.329 N 
ATOM      5 HD21 ASN A   1      -5.096  -6.616   9.273  0.00  0.00    +0.145 HD
ATOM      6 HD22 ASN A   1      -3.508  -5.825   8.958  0.00  0.00    +0.145 HD
ENDBRANCH   1   2
BRANCH   1   7
ATOM      7  CA  ASN A   1      -1.395  -8.247  11.468  0.00  0.00    +0.142 C 
BRANCH   7   8
ATOM      8  N   ASN A   1      -1.688  -9.656  11.238  0.00  0.00    -0.239 NA
ATOM      9  H   ASN A   1      -2.610  -9.919  10.834  0.00  0.00    +0.142 HD
ENDBRANCH   7   8
BRANCH   7  10
ATOM     10  C   ASN A   1      -1.922  -7.806  12.828  0.00  0.00    +0.225 C 
ATOM     11  O   ASN A   1      -2.557  -6.763  12.952  0.00  0.00    -0.287 OA
ENDBRANCH   7  10
ENDBRANCH   1   7
TORSDOF 4
REMARK  Name = ../refined-set-2016/3oku/3oku_pocket.pdb
REMARK  163 active torsions:
REMARK  status: ('A' for Active; 'I' for Inactive)
REMARK    1  A    between atoms: _1  and  _3
REMARK    2  A    between atoms: _3  and  _4
REMARK    3  A    between atoms: _3  and  _6
REMARK    4  A    between atoms: _6  and  _7
REMARK    5  A    between atoms: _17  and  _19
REMARK    6  A    between atoms: _19  and  _20
REMARK    7  A    between atoms: _19  and  _22
REMARK    8  A    between atoms: _22  and  _23
REMARK    9  A    between atoms: _28  and  _29
REMARK   10  A    between atoms: _31  and  _33
REMARK   11  A    between atoms: _33  and  _34
REMARK   12  A    between atoms: _33  and  _36
REMARK   13  A    between atoms: _36  and  _37
REMARK   14  A    between atoms: _43  and  _45
REMARK   15  A    between atoms: _45  and  _46
REMARK   16  A    between atoms: _45  and  _48
REMARK   17  A    between atoms: _48  and  _49
REMARK   18  A    between atoms: _52  and  _53
REMARK   19  A    between atoms: _58  and  _60
REMARK   20  A    between atoms: _60  and  _61
REMARK   21  A    between atoms: _60  and  _63
REMARK   22  A    between atoms: _63  and  _64
REMARK   23  A    between atoms: _69  and  _71
REMARK   24  A    between atoms: _71  and  _72
REMARK   25  A    between atoms: _71  and  _74
REMARK   26  A    between atoms: _74  and  _75
REMARK   27  A    between atoms: _80  and  _82
REMARK   28  A    between atoms: _82  and  _83
REMARK   29  A    between atoms: _86  and  _88
REMARK   30  A    between atoms: _88  and  _89
REMARK   31  A    between atoms: _88  and  _91
REMARK   32  A    between atoms: _91  and  _92
REMARK   33  A    between atoms: _97  and  _99
REMARK   34  A    between atoms: _99  and  _100
REMARK   35  A    between atoms: _99  and  _102
REMARK   36  A    between atoms: _102  and  _103
REMARK   37  A    between atoms: _106  and  _108
REMARK   38  A    between atoms: _108  and  _109
REMARK   39  A    between atoms: _108  and  _111
REMARK   40  A    between atoms: _111  and  _112
REMARK   41  A    between atoms: _112  and  _113
REMARK   42  A    between atoms: _118  and  _120
REMARK   43  A    between atoms: _120  and  _121
REMARK   44  A    between atoms: _120  and  _123
REMARK   45  A    between atoms: _123  and  _124
REMARK   46  A    between atoms: _130  and  _132
REMARK   47  A    between atoms: _143  and  _146
REMARK   48  A    between atoms: _146  and  _147
REMARK   49  A    between atoms: _155  and  _156
REMARK   50  A    between atoms: _164  and  _166
REMARK   51  A    between atoms: _166  and  _167
REMARK   52  A    between atoms: _166  and  _169
REMARK   53  A    between atoms: _169  and  _170
REMARK   54  A    between atoms: _170  and  _171
REMARK   55  A    between atoms: _174  and  _176
REMARK   56  A    between atoms: _176  and  _177
REMARK   57  A    between atoms: _176  and  _179
REMARK   58  A    between atoms: _179  and  _180
REMARK   59  A    between atoms: _185  and  _187
REMARK   60  A    between atoms: _187  and  _188
REMARK   61  A    between atoms: _187  and  _190
REMARK   62  A    between atoms: _190  and  _191
REMARK   63  A    between atoms: _191  and  _192
REMARK   64  A    between atoms: _195  and  _197
REMARK   65  A    between atoms: _197  and  _198
REMARK   66  A    between atoms: _197  and  _200
REMARK   67  A    between atoms: _200  and  _201
REMARK   68  A    between atoms: _204  and  _206
REMARK   69  A    between atoms: _206  and  _207
REMARK   70  A    between atoms: _206  and  _209
REMARK   71  A    between atoms: _209  and  _210
REMARK   72  A    between atoms: _211  and  ZN_451
REMARK   73  A    between atoms: _215  and  _217
REMARK   74  A    between atoms: _217  and  _218
REMARK   75  A    between atoms: _217  and  _220
REMARK   76  A    between atoms: _220  and  _221
REMARK   77  A    between atoms: _224  and  _226
REMARK   78  A    between atoms: _226  and  _227
REMARK   79  A    between atoms: _226  and  _229
REMARK   80  A    between atoms: _232  and  _234
REMARK   81  A    between atoms: _234  and  _235
REMARK   82  A    between atoms: _234  and  _237
REMARK   83  A    between atoms: _237  and  _238
REMARK   84  A    between atoms: _243  and  _245
REMARK   85  A    between atoms: _245  and  _246
REMARK   86  A    between atoms: _245  and  _248
REMARK   87  A    between atoms: _248  and  _249
REMARK   88  A    between atoms: _255  and  _257
REMARK   89  A    between atoms: _257  and  _258
REMARK   90  A    between atoms: _260  and  _262
REMARK   91  A    between atoms: _262  and  _263
REMARK   92  A    between atoms: _262  and  _265
REMARK   93  A    between atoms: _265  and  _266
REMARK   94  A    between atoms: _266  and  _267
REMARK   95  A    between atoms: _267  and  _268
REMARK   96  A    between atoms: _268  and  _269
REMARK   97  A    between atoms: _273  and  _275
REMARK   98  A    between atoms: _275  and  _276
REMARK   99  A    between atoms: _275  and  _278
REMARK  100  A    between atoms: _281  and  _283
REMARK  101  A    between atoms: _283  and  _284
REMARK  102  A    between atoms: _283  and  _286
REMARK  103  A    between atoms: _286  and  _287
REMARK  104  A    between atoms: _287  and  _288
REMARK  105  A    between atoms: _293  and  _295
REMARK  106  A    between atoms: _295  and  _296
REMARK  107  A    between atoms: _295  and  _298
REMARK  108  A    between atoms: _298  and  _299
REMARK  109  A    between atoms: _302  and  _304
REMARK  110  A    between atoms: _304  and  _305
REMARK  111  A    between atoms: _308  and  _310
REMARK  112  A    between atoms: _310  and  _311
REMARK  113  A    between atoms: _310  and  _313
REMARK  114  A    between atoms: _316  and  _318
REMARK  115  A    between atoms: _318  and  _319
REMARK  116  A    between atoms: _318  and  _321
REMARK  117  A    between atoms: _321  and  _322
REMARK  118  A    between atoms: _325  and  _327
REMARK  119  A    between atoms: _327  and  _328
REMARK  120  A    between atoms: _327  and  _330
REMARK  121  A    between atoms: _330  and  _331
REMARK  122  A    between atoms: _333  and  _335
REMARK  123  A    between atoms: _335  and  _336
REMARK  124  A    between atoms: _335  and  _338
REMARK  125  A    between atoms: _338  and  _339
REMARK  126  A    between atoms: _342  and  _344
REMARK  127  A    between atoms: _344  and  _345
REMARK  128  A    between atoms: _344  and  _347
REMARK  129  A    between atoms: _347  and  _348
REMARK  130  A    between atoms: _351  and  _353
REMARK  131  A    between atoms: _353  and  _354
REMARK  132  A    between atoms: _353  and  _356
REMARK  133  A    between atoms: _356  and  _357
REMARK  134  A    between atoms: _361  and  _362
REMARK  135  A    between atoms: _368  and  _369
REMARK  136  A    between atoms: _374  and  _376
REMARK  137  A    between atoms: _376  and  _377
REMARK  138  A    between atoms: _376  and  _379
REMARK  139  A    between atoms: _379  and  _380
REMARK  140  A    between atoms: _383  and  _385
REMARK  141  A    between atoms: _385  and  _386
REMARK  142  A    between atoms: _385  and  _388
REMARK  143  A    between atoms: _388  and  _389
REMARK  144  A    between atoms: _392  and  _394
REMARK  145  A    between atoms: _394  and  _395
REMARK  146  A    between atoms: _394  and  _397
REMARK  147  A    between atoms: _399  and  _401
REMARK  148  A    between atoms: _401  and  _402
REMARK  149  A    between atoms: _401  and  _404
REMARK  150  A    between atoms: _407  and  _409
REMARK  151  A    between atoms: _409  and  _410
REMARK  152  A    between atoms: _409  and  _412
REMARK  153  A    between atoms: _412  and  _413
REMARK  154  A    between atoms: _423  and  _425
REMARK  155  A    between atoms: _425  and  _426
REMARK  156  A    between atoms: _425  and  _428
REMARK  157  A    between atoms: _428  and  _429
REMARK  158  A    between atoms: _434  and  _436
REMARK  159  A    between atoms: _436  and  _437
REMARK  160  A    between atoms: _436  and  _439
REMARK  161  A    between atoms: _439  and  _440
REMARK  162  A    between atoms: _440  and  _441
REMARK  163  A    between atoms: _441  and  _442
REMARK                            x       y       z     vdW  Elec       q    Type
REMARK                         _______ _______ _______ _____ _____    ______ ____
ROOT
ATOM      1  NE  ARG A   1       2.300  -3.955  21.113  0.00  0.00    +0.330 N 
ATOM      2  CZ  ARG A   1       2.483  -2.960  21.971  0.00  0.00    +0.000 C 
ATOM      3  NH2 ARG A   1       3.703  -2.770  22.473  0.00  0.00    +0.330 N 
ATOM      4 HH21 ARG A   1       3.873  -1.997  23.148  0.00  0.00    +0.000 HD
ATOM      5 HH22 ARG A   1       4.485  -3.395  22.190  0.00  0.00    +0.000 HD
ATOM      6  NH1 ARG A   1       1.478  -2.159  22.315  0.00  0.00    +0.330 N 
ATOM      7 HH11 ARG A   1       1.638  -1.383  22.989  0.00  0.00    +0.000 HD
ATOM      8 HH12 ARG A   1       0.532  -2.308  21.910  0.00  0.00    +0.000 HD
ATOM      9  HE  ARG A   1       3.109  -4.580  20.923  0.00  0.00    +0.000 HD
ENDROOT
BRANCH   1  10
ATOM     10  CD  ARG A   1       1.042  -4.242  20.411  0.00  0.00    +0.000 C 
BRANCH  10  11
ATOM     11  CG  ARG A   1       1.114  -5.599  19.757  0.00  0.00    +0.000 C 
BRANCH  11  12
ATOM     12  CB  ARG A   1       0.026  -5.832  18.743  0.00  0.00    +0.000 C 
BRANCH  12  13
ATOM     13  CA  ARG A   1      -0.041  -7.270  18.217  0.00  0.00    +0.000 C 
BRANCH  13  14
ATOM     14  N   ARG A   1      -0.983  -7.357  17.110  0.00  0.00    +0.000 NA
ATOM     15  H   ARG A   1      -1.767  -6.675  17.074  0.00  0.00    +0.000 HD
ENDBRANCH  13  14
BRANCH  13  16
ATOM     16  C   ARG A   1      -0.530  -8.182  19.338  0.00  0.00    +0.000 C 
ATOM     17  O   ARG A   1      -1.726  -8.196  19.635  0.00  0.00    +0.000 OA
ENDBRANCH  13  16
ENDBRANCH  12  13
ENDBRANCH  11  12
ENDBRANCH  10  11
ENDBRANCH   1  10
TORSDOF 6
REMARK  Name = ../refined-set-2016/3oku/3oku_pocket.pdb
REMARK  163 active torsions:
REMARK  status: ('A' for Active; 'I' for Inactive)
REMARK    1  A    between atoms: _1  and  _3
REMARK    2  A    between atoms: _3  and  _4
REMARK    3  A    between atoms: _3  and  _6
REMARK    4  A    between atoms: _6  and  _7
REMARK    5  A    between atoms: _17  and  _19
REMARK    6  A    between atoms: _19  and  _20
REMARK    7  A    between atoms: _19  and  _22
REMARK    8  A    between atoms: _22  and  _23
REMARK    9  A    between atoms: _28  and  _29
REMARK   10  A    between atoms: _31  and  _33
REMARK   11  A    between atoms: _33  and  _34
REMARK   12  A    between atoms: _33  and  _36
REMARK   13  A    between atoms: _36  and  _37
REMARK   14  A    between atoms: _43  and  _45
REMARK   15  A    between atoms: _45  and  _46
REMARK   16  A    between atoms: _45  and  _48
REMARK   17  A    between atoms: _48  and  _49
REMARK   18  A    between atoms: _52  and  _53
REMARK   19  A    between atoms: _58  and  _60
REMARK   20  A    between atoms: _60  and  _61
REMARK   21  A    between atoms: _60  and  _63
REMARK   22  A    between atoms: _63  and  _64
REMARK   23  A    between atoms: _69  and  _71
REMARK   24  A    between atoms: _71  and  _72
REMARK   25  A    between atoms: _71  and  _74
REMARK   26  A    between atoms: _74  and  _75
REMARK   27  A    between atoms: _80  and  _82
REMARK   28  A    between atoms: _82  and  _83
REMARK   29  A    between atoms: _86  and  _88
REMARK   30  A    between atoms: _88  and  _89
REMARK   31  A    between atoms: _88  and  _91
REMARK   32  A    between atoms: _91  and  _92
REMARK   33  A    between atoms: _97  and  _99
REMARK   34  A    between atoms: _99  and  _100
REMARK   35  A    between atoms: _99  and  _102
REMARK   36  A    between atoms: _102  and  _103
REMARK   37  A    between atoms: _106  and  _108
REMARK   38  A    between atoms: _108  and  _109
REMARK   39  A    between atoms: _108  and  _111
REMARK   40  A    between atoms: _111  and  _112
REMARK   41  A    between atoms: _112  and  _113
REMARK   42  A    between atoms: _118  and  _120
REMARK   43  A    between atoms: _120  and  _121
REMARK   44  A    between atoms: _120  and  _123
REMARK   45  A    between atoms: _123  and  _124
REMARK   46  A    between atoms: _130  and  _132
REMARK   47  A    between atoms: _143  and  _146
REMARK   48  A    between atoms: _146  and  _147
REMARK   49  A    between atoms: _155  and  _156
REMARK   50  A    between atoms: _164  and  _166
REMARK   51  A    between atoms: _166  and  _167
REMARK   52  A    between atoms: _166  and  _169
REMARK   53  A    between atoms: _169  and  _170
REMARK   54  A    between atoms: _170  and  _171
REMARK   55  A    between atoms: _174  and  _176
REMARK   56  A    between atoms: _176  and  _177
REMARK   57  A    between atoms: _176  and  _179
REMARK   58  A    between atoms: _179  and  _180
REMARK   59  A    between atoms: _185  and  _187
REMARK   60  A    between atoms: _187  and  _188
REMARK   61  A    between atoms: _187  and  _190
REMARK   62  A    between atoms: _190  and  _191
REMARK   63  A    between atoms: _191  and  _192
REMARK   64  A    between atoms: _195  and  _197
REMARK   65  A    between atoms: _197  and  _198
REMARK   66  A    between atoms: _197  and  _200
REMARK   67  A    between atoms: _200  and  _201
REMARK   68  A    between atoms: _204  and  _206
REMARK   69  A    between atoms: _206  and  _207
REMARK   70  A    between atoms: _206  and  _209
REMARK   71  A    between atoms: _209  and  _210
REMARK   72  A    between atoms: _211  and  ZN_451
REMARK   73  A    between atoms: _215  and  _217
REMARK   74  A    between atoms: _217  and  _218
REMARK   75  A    between atoms: _217  and  _220
REMARK   76  A    between atoms: _220  and  _221
REMARK   77  A    between atoms: _224  and  _226
REMARK   78  A    between atoms: _226  and  _227
REMARK   79  A    between atoms: _226  and  _229
REMARK   80  A    between atoms: _232  and  _234
REMARK   81  A    between atoms: _234  and  _235
REMARK   82  A    between atoms: _234  and  _237
REMARK   83  A    between atoms: _237  and  _238
REMARK   84  A    between atoms: _243  and  _245
REMARK   85  A    between atoms: _245  and  _246
REMARK   86  A    between atoms: _245  and  _248
REMARK   87  A    between atoms: _248  and  _249
REMARK   88  A    between atoms: _255  and  _257
REMARK   89  A    between atoms: _257  and  _258
REMARK   90  A    between atoms: _260  and  _262
REMARK   91  A    between atoms: _262  and  _263
REMARK   92  A    between atoms: _262  and  _265
REMARK   93  A    between atoms: _265  and  _266
REMARK   94  A    between atoms: _266  and  _267
REMARK   95  A    between atoms: _267  and  _268
REMARK   96  A    between atoms: _268  and  _269
REMARK   97  A    between atoms: _273  and  _275
REMARK   98  A    between atoms: _275  and  _276
REMARK   99  A    between atoms: _275  and  _278
REMARK  100  A    between atoms: _281  and  _283
REMARK  101  A    between atoms: _283  and  _284
REMARK  102  A    between atoms: _283  and  _286
REMARK  103  A    between atoms: _286  and  _287
REMARK  104  A    between atoms: _287  and  _288
REMARK  105  A    between atoms: _293  and  _295
REMARK  106  A    between atoms: _295  and  _296
REMARK  107  A    between atoms: _295  and  _298
REMARK  108  A    between atoms: _298  and  _299
REMARK  109  A    between atoms: _302  and  _304
REMARK  110  A    between atoms: _304  and  _305
REMARK  111  A    between atoms: _308  and  _310
REMARK  112  A    between atoms: _310  and  _311
REMARK  113  A    between atoms: _310  and  _313
REMARK  114  A    between atoms: _316  and  _318
REMARK  115  A    between atoms: _318  and  _319
REMARK  116  A    between atoms: _318  and  _321
REMARK  117  A    between atoms: _321  and  _322
REMARK  118  A    between atoms: _325  and  _327
REMARK  119  A    between atoms: _327  and  _328
REMARK  120  A    between atoms: _327  and  _330
REMARK  121  A    between atoms: _330  and  _331
REMARK  122  A    between atoms: _333  and  _335
REMARK  123  A    between atoms: _335  and  _336
REMARK  124  A    between atoms: _335  and  _338
REMARK  125  A    between atoms: _338  and  _339
REMARK  126  A    between atoms: _342  and  _344
REMARK  127  A    between atoms: _344  and  _345
REMARK  128  A    between atoms: _344  and  _347
REMARK  129  A    between atoms: _347  and  _348
REMARK  130  A    between atoms: _351  and  _353
REMARK  131  A    between atoms: _353  and  _354
REMARK  132  A    between atoms: _353  and  _356
REMARK  133  A    between atoms: _356  and  _357
REMARK  134  A    between atoms: _361  and  _362
REMARK  135  A    between atoms: _368  and  _369
REMARK  136  A    between atoms: _374  and  _376
REMARK  137  A    between atoms: _376  and  _377
REMARK  138  A    between atoms: _376  and  _379
REMARK  139  A    between atoms: _379  and  _380
REMARK  140  A    between atoms: _383  and  _385
REMARK  141  A    between atoms: _385  and  _386
REMARK  142  A    between atoms: _385  and  _388
REMARK  143  A    between atoms: _388  and  _389
REMARK  144  A    between atoms: _392  and  _394
REMARK  145  A    between atoms: _394  and  _395
REMARK  146  A    between atoms: _394  and  _397
REMARK  147  A    between atoms: _399  and  _401
REMARK  148  A    between atoms: _401  and  _402
REMARK  149  A    between atoms: _401  and  _404
REMARK  150  A    between atoms: _407  and  _409
REMARK  151  A    between atoms: _409  and  _410
REMARK  152  A    between atoms: _409  and  _412
REMARK  153  A    between atoms: _412  and  _413
REMARK  154  A    between atoms: _423  and  _425
REMARK  155  A    between atoms: _425  and  _426
REMARK  156  A    between atoms: _425  and  _428
REMARK  157  A    between atoms: _428  and  _429
REMARK  158  A    between atoms: _434  and  _436
REMARK  159  A    between atoms: _436  and  _437
REMARK  160  A    between atoms: _436  and  _439
REMARK  161  A    between atoms: _439  and  _440
REMARK  162  A    between atoms: _440  and  _441
REMARK  163  A    between atoms: _441  and  _442
REMARK                            x       y       z     vdW  Elec       q    Type
REMARK                         _______ _______ _______ _____ _____    ______ ____
ROOT
ATOM      1  O   HOH     1      -1.141  -4.169  15.696  0.00  0.00    +0.000 OA
ENDROOT
TORSDOF 0
REMARK  Name = ../refined-set-2016/3oku/3oku_pocket.pdb
REMARK  163 active torsions:
REMARK  status: ('A' for Active; 'I' for Inactive)
REMARK    1  A    between atoms: _1  and  _3
REMARK    2  A    between atoms: _3  and  _4
REMARK    3  A    between atoms: _3  and  _6
REMARK    4  A    between atoms: _6  and  _7
REMARK    5  A    between atoms: _17  and  _19
REMARK    6  A    between atoms: _19  and  _20
REMARK    7  A    between atoms: _19  and  _22
REMARK    8  A    between atoms: _22  and  _23
REMARK    9  A    between atoms: _28  and  _29
REMARK   10  A    between atoms: _31  and  _33
REMARK   11  A    between atoms: _33  and  _34
REMARK   12  A    between atoms: _33  and  _36
REMARK   13  A    between atoms: _36  and  _37
REMARK   14  A    between atoms: _43  and  _45
REMARK   15  A    between atoms: _45  and  _46
REMARK   16  A    between atoms: _45  and  _48
REMARK   17  A    between atoms: _48  and  _49
REMARK   18  A    between atoms: _52  and  _53
REMARK   19  A    between atoms: _58  and  _60
REMARK   20  A    between atoms: _60  and  _61
REMARK   21  A    between atoms: _60  and  _63
REMARK   22  A    between atoms: _63  and  _64
REMARK   23  A    between atoms: _69  and  _71
REMARK   24  A    between atoms: _71  and  _72
REMARK   25  A    between atoms: _71  and  _74
REMARK   26  A    between atoms: _74  and  _75
REMARK   27  A    between atoms: _80  and  _82
REMARK   28  A    between atoms: _82  and  _83
REMARK   29  A    between atoms: _86  and  _88
REMARK   30  A    between atoms: _88  and  _89
REMARK   31  A    between atoms: _88  and  _91
REMARK   32  A    between atoms: _91  and  _92
REMARK   33  A    between atoms: _97  and  _99
REMARK   34  A    between atoms: _99  and  _100
REMARK   35  A    between atoms: _99  and  _102
REMARK   36  A    between atoms: _102  and  _103
REMARK   37  A    between atoms: _106  and  _108
REMARK   38  A    between atoms: _108  and  _109
REMARK   39  A    between atoms: _108  and  _111
REMARK   40  A    between atoms: _111  and  _112
REMARK   41  A    between atoms: _112  and  _113
REMARK   42  A    between atoms: _118  and  _120
REMARK   43  A    between atoms: _120  and  _121
REMARK   44  A    between atoms: _120  and  _123
REMARK   45  A    between atoms: _123  and  _124
REMARK   46  A    between atoms: _130  and  _132
REMARK   47  A    between atoms: _143  and  _146
REMARK   48  A    between atoms: _146  and  _147
REMARK   49  A    between atoms: _155  and  _156
REMARK   50  A    between atoms: _164  and  _166
REMARK   51  A    between atoms: _166  and  _167
REMARK   52  A    between atoms: _166  and  _169
REMARK   53  A    between atoms: _169  and  _170
REMARK   54  A    between atoms: _170  and  _171
REMARK   55  A    between atoms: _174  and  _176
REMARK   56  A    between atoms: _176  and  _177
REMARK   57  A    between atoms: _176  and  _179
REMARK   58  A    between atoms: _179  and  _180
REMARK   59  A    between atoms: _185  and  _187
REMARK   60  A    between atoms: _187  and  _188
REMARK   61  A    between atoms: _187  and  _190
REMARK   62  A    between atoms: _190  and  _191
REMARK   63  A    between atoms: _191  and  _192
REMARK   64  A    between atoms: _195  and  _197
REMARK   65  A    between atoms: _197  and  _198
REMARK   66  A    between atoms: _197  and  _200
REMARK   67  A    between atoms: _200  and  _201
REMARK   68  A    between atoms: _204  and  _206
REMARK   69  A    between atoms: _206  and  _207
REMARK   70  A    between atoms: _206  and  _209
REMARK   71  A    between atoms: _209  and  _210
REMARK   72  A    between atoms: _211  and  ZN_451
REMARK   73  A    between atoms: _215  and  _217
REMARK   74  A    between atoms: _217  and  _218
REMARK   75  A    between atoms: _217  and  _220
REMARK   76  A    between atoms: _220  and  _221
REMARK   77  A    between atoms: _224  and  _226
REMARK   78  A    between atoms: _226  and  _227
REMARK   79  A    between atoms: _226  and  _229
REMARK   80  A    between atoms: _232  and  _234
REMARK   81  A    between atoms: _234  and  _235
REMARK   82  A    between atoms: _234  and  _237
REMARK   83  A    between atoms: _237  and  _238
REMARK   84  A    between atoms: _243  and  _245
REMARK   85  A    between atoms: _245  and  _246
REMARK   86  A    between atoms: _245  and  _248
REMARK   87  A    between atoms: _248  and  _249
REMARK   88  A    between atoms: _255  and  _257
REMARK   89  A    between atoms: _257  and  _258
REMARK   90  A    between atoms: _260  and  _262
REMARK   91  A    between atoms: _262  and  _263
REMARK   92  A    between atoms: _262  and  _265
REMARK   93  A    between atoms: _265  and  _266
REMARK   94  A    between atoms: _266  and  _267
REMARK   95  A    between atoms: _267  and  _268
REMARK   96  A    between atoms: _268  and  _269
REMARK   97  A    between atoms: _273  and  _275
REMARK   98  A    between atoms: _275  and  _276
REMARK   99  A    between atoms: _275  and  _278
REMARK  100  A    between atoms: _281  and  _283
REMARK  101  A    between atoms: _283  and  _284
REMARK  102  A    between atoms: _283  and  _286
REMARK  103  A    between atoms: _286  and  _287
REMARK  104  A    between atoms: _287  and  _288
REMARK  105  A    between atoms: _293  and  _295
REMARK  106  A    between atoms: _295  and  _296
REMARK  107  A    between atoms: _295  and  _298
REMARK  108  A    between atoms: _298  and  _299
REMARK  109  A    between atoms: _302  and  _304
REMARK  110  A    between atoms: _304  and  _305
REMARK  111  A    between atoms: _308  and  _310
REMARK  112  A    between atoms: _310  and  _311
REMARK  113  A    between atoms: _310  and  _313
REMARK  114  A    between atoms: _316  and  _318
REMARK  115  A    between atoms: _318  and  _319
REMARK  116  A    between atoms: _318  and  _321
REMARK  117  A    between atoms: _321  and  _322
REMARK  118  A    between atoms: _325  and  _327
REMARK  119  A    between atoms: _327  and  _328
REMARK  120  A    between atoms: _327  and  _330
REMARK  121  A    between atoms: _330  and  _331
REMARK  122  A    between atoms: _333  and  _335
REMARK  123  A    between atoms: _335  and  _336
REMARK  124  A    between atoms: _335  and  _338
REMARK  125  A    between atoms: _338  and  _339
REMARK  126  A    between atoms: _342  and  _344
REMARK  127  A    between atoms: _344  and  _345
REMARK  128  A    between atoms: _344  and  _347
REMARK  129  A    between atoms: _347  and  _348
REMARK  130  A    between atoms: _351  and  _353
REMARK  131  A    between atoms: _353  and  _354
REMARK  132  A    between atoms: _353  and  _356
REMARK  133  A    between atoms: _356  and  _357
REMARK  134  A    between atoms: _361  and  _362
REMARK  135  A    between atoms: _368  and  _369
REMARK  136  A    between atoms: _374  and  _376
REMARK  137  A    between atoms: _376  and  _377
REMARK  138  A    between atoms: _376  and  _379
REMARK  139  A    between atoms: _379  and  _380
REMARK  140  A    between atoms: _383  and  _385
REMARK  141  A    between atoms: _385  and  _386
REMARK  142  A    between atoms: _385  and  _388
REMARK  143  A    between atoms: _388  and  _389
REMARK  144  A    between atoms: _392  and  _394
REMARK  145  A    between atoms: _394  and  _395
REMARK  146  A    between atoms: _394  and  _397
REMARK  147  A    between atoms: _399  and  _401
REMARK  148  A    between atoms: _401  and  _402
REMARK  149  A    between atoms: _401  and  _404
REMARK  150  A    between atoms: _407  and  _409
REMARK  151  A    between atoms: _409  and  _410
REMARK  152  A    between atoms: _409  and  _412
REMARK  153  A    between atoms: _412  and  _413
REMARK  154  A    between atoms: _423  and  _425
REMARK  155  A    between atoms: _425  and  _426
REMARK  156  A    between atoms: _425  and  _428
REMARK  157  A    between atoms: _428  and  _429
REMARK  158  A    between atoms: _434  and  _436
REMARK  159  A    between atoms: _436  and  _437
REMARK  160  A    between atoms: _436  and  _439
REMARK  161  A    between atoms: _439  and  _440
REMARK  162  A    between atoms: _440  and  _441
REMARK  163  A    between atoms: _441  and  _442
REMARK                            x       y       z     vdW  Elec       q    Type
REMARK                         _______ _______ _______ _____ _____    ______ ____
ROOT
ATOM      1  O   HOH     1      -2.499  -3.299  11.466  0.00  0.00    +0.000 OA
ENDROOT
TORSDOF 0
REMARK  Name = ../refined-set-2016/3oku/3oku_pocket.pdb
REMARK  163 active torsions:
REMARK  status: ('A' for Active; 'I' for Inactive)
REMARK    1  A    between atoms: _1  and  _3
REMARK    2  A    between atoms: _3  and  _4
REMARK    3  A    between atoms: _3  and  _6
REMARK    4  A    between atoms: _6  and  _7
REMARK    5  A    between atoms: _17  and  _19
REMARK    6  A    between atoms: _19  and  _20
REMARK    7  A    between atoms: _19  and  _22
REMARK    8  A    between atoms: _22  and  _23
REMARK    9  A    between atoms: _28  and  _29
REMARK   10  A    between atoms: _31  and  _33
REMARK   11  A    between atoms: _33  and  _34
REMARK   12  A    between atoms: _33  and  _36
REMARK   13  A    between atoms: _36  and  _37
REMARK   14  A    between atoms: _43  and  _45
REMARK   15  A    between atoms: _45  and  _46
REMARK   16  A    between atoms: _45  and  _48
REMARK   17  A    between atoms: _48  and  _49
REMARK   18  A    between atoms: _52  and  _53
REMARK   19  A    between atoms: _58  and  _60
REMARK   20  A    between atoms: _60  and  _61
REMARK   21  A    between atoms: _60  and  _63
REMARK   22  A    between atoms: _63  and  _64
REMARK   23  A    between atoms: _69  and  _71
REMARK   24  A    between atoms: _71  and  _72
REMARK   25  A    between atoms: _71  and  _74
REMARK   26  A    between atoms: _74  and  _75
REMARK   27  A    between atoms: _80  and  _82
REMARK   28  A    between atoms: _82  and  _83
REMARK   29  A    between atoms: _86  and  _88
REMARK   30  A    between atoms: _88  and  _89
REMARK   31  A    between atoms: _88  and  _91
REMARK   32  A    between atoms: _91  and  _92
REMARK   33  A    between atoms: _97  and  _99
REMARK   34  A    between atoms: _99  and  _100
REMARK   35  A    between atoms: _99  and  _102
REMARK   36  A    between atoms: _102  and  _103
REMARK   37  A    between atoms: _106  and  _108
REMARK   38  A    between atoms: _108  and  _109
REMARK   39  A    between atoms: _108  and  _111
REMARK   40  A    between atoms: _111  and  _112
REMARK   41  A    between atoms: _112  and  _113
REMARK   42  A    between atoms: _118  and  _120
REMARK   43  A    between atoms: _120  and  _121
REMARK   44  A    between atoms: _120  and  _123
REMARK   45  A    between atoms: _123  and  _124
REMARK   46  A    between atoms: _130  and  _132
REMARK   47  A    between atoms: _143  and  _146
REMARK   48  A    between atoms: _146  and  _147
REMARK   49  A    between atoms: _155  and  _156
REMARK   50  A    between atoms: _164  and  _166
REMARK   51  A    between atoms: _166  and  _167
REMARK   52  A    between atoms: _166  and  _169
REMARK   53  A    between atoms: _169  and  _170
REMARK   54  A    between atoms: _170  and  _171
REMARK   55  A    between atoms: _174  and  _176
REMARK   56  A    between atoms: _176  and  _177
REMARK   57  A    between atoms: _176  and  _179
REMARK   58  A    between atoms: _179  and  _180
REMARK   59  A    between atoms: _185  and  _187
REMARK   60  A    between atoms: _187  and  _188
REMARK   61  A    between atoms: _187  and  _190
REMARK   62  A    between atoms: _190  and  _191
REMARK   63  A    between atoms: _191  and  _192
REMARK   64  A    between atoms: _195  and  _197
REMARK   65  A    between atoms: _197  and  _198
REMARK   66  A    between atoms: _197  and  _200
REMARK   67  A    between atoms: _200  and  _201
REMARK   68  A    between atoms: _204  and  _206
REMARK   69  A    between atoms: _206  and  _207
REMARK   70  A    between atoms: _206  and  _209
REMARK   71  A    between atoms: _209  and  _210
REMARK   72  A    between atoms: _211  and  ZN_451
REMARK   73  A    between atoms: _215  and  _217
REMARK   74  A    between atoms: _217  and  _218
REMARK   75  A    between atoms: _217  and  _220
REMARK   76  A    between atoms: _220  and  _221
REMARK   77  A    between atoms: _224  and  _226
REMARK   78  A    between atoms: _226  and  _227
REMARK   79  A    between atoms: _226  and  _229
REMARK   80  A    between atoms: _232  and  _234
REMARK   81  A    between atoms: _234  and  _235
REMARK   82  A    between atoms: _234  and  _237
REMARK   83  A    between atoms: _237  and  _238
REMARK   84  A    between atoms: _243  and  _245
REMARK   85  A    between atoms: _245  and  _246
REMARK   86  A    between atoms: _245  and  _248
REMARK   87  A    between atoms: _248  and  _249
REMARK   88  A    between atoms: _255  and  _257
REMARK   89  A    between atoms: _257  and  _258
REMARK   90  A    between atoms: _260  and  _262
REMARK   91  A    between atoms: _262  and  _263
REMARK   92  A    between atoms: _262  and  _265
REMARK   93  A    between atoms: _265  and  _266
REMARK   94  A    between atoms: _266  and  _267
REMARK   95  A    between atoms: _267  and  _268
REMARK   96  A    between atoms: _268  and  _269
REMARK   97  A    between atoms: _273  and  _275
REMARK   98  A    between atoms: _275  and  _276
REMARK   99  A    between atoms: _275  and  _278
REMARK  100  A    between atoms: _281  and  _283
REMARK  101  A    between atoms: _283  and  _284
REMARK  102  A    between atoms: _283  and  _286
REMARK  103  A    between atoms: _286  and  _287
REMARK  104  A    between atoms: _287  and  _288
REMARK  105  A    between atoms: _293  and  _295
REMARK  106  A    between atoms: _295  and  _296
REMARK  107  A    between atoms: _295  and  _298
REMARK  108  A    between atoms: _298  and  _299
REMARK  109  A    between atoms: _302  and  _304
REMARK  110  A    between atoms: _304  and  _305
REMARK  111  A    between atoms: _308  and  _310
REMARK  112  A    between atoms: _310  and  _311
REMARK  113  A    between atoms: _310  and  _313
REMARK  114  A    between atoms: _316  and  _318
REMARK  115  A    between atoms: _318  and  _319
REMARK  116  A    between atoms: _318  and  _321
REMARK  117  A    between atoms: _321  and  _322
REMARK  118  A    between atoms: _325  and  _327
REMARK  119  A    between atoms: _327  and  _328
REMARK  120  A    between atoms: _327  and  _330
REMARK  121  A    between atoms: _330  and  _331
REMARK  122  A    between atoms: _333  and  _335
REMARK  123  A    between atoms: _335  and  _336
REMARK  124  A    between atoms: _335  and  _338
REMARK  125  A    between atoms: _338  and  _339
REMARK  126  A    between atoms: _342  and  _344
REMARK  127  A    between atoms: _344  and  _345
REMARK  128  A    between atoms: _344  and  _347
REMARK  129  A    between atoms: _347  and  _348
REMARK  130  A    between atoms: _351  and  _353
REMARK  131  A    between atoms: _353  and  _354
REMARK  132  A    between atoms: _353  and  _356
REMARK  133  A    between atoms: _356  and  _357
REMARK  134  A    between atoms: _361  and  _362
REMARK  135  A    between atoms: _368  and  _369
REMARK  136  A    between atoms: _374  and  _376
REMARK  137  A    between atoms: _376  and  _377
REMARK  138  A    between atoms: _376  and  _379
REMARK  139  A    between atoms: _379  and  _380
REMARK  140  A    between atoms: _383  and  _385
REMARK  141  A    between atoms: _385  and  _386
REMARK  142  A    between atoms: _385  and  _388
REMARK  143  A    between atoms: _388  and  _389
REMARK  144  A    between atoms: _392  and  _394
REMARK  145  A    between atoms: _394  and  _395
REMARK  146  A    between atoms: _394  and  _397
REMARK  147  A    between atoms: _399  and  _401
REMARK  148  A    between atoms: _401  and  _402
REMARK  149  A    between atoms: _401  and  _404
REMARK  150  A    between atoms: _407  and  _409
REMARK  151  A    between atoms: _409  and  _410
REMARK  152  A    between atoms: _409  and  _412
REMARK  153  A    between atoms: _412  and  _413
REMARK  154  A    between atoms: _423  and  _425
REMARK  155  A    between atoms: _425  and  _426
REMARK  156  A    between atoms: _425  and  _428
REMARK  157  A    between atoms: _428  and  _429
REMARK  158  A    between atoms: _434  and  _436
REMARK  159  A    between atoms: _436  and  _437
REMARK  160  A    between atoms: _436  and  _439
REMARK  161  A    between atoms: _439  and  _440
REMARK  162  A    between atoms: _440  and  _441
REMARK  163  A    between atoms: _441  and  _442
REMARK                            x       y       z     vdW  Elec       q    Type
REMARK                         _______ _______ _______ _____ _____    ______ ____
ROOT
ATOM      1  O   HOH     1      -6.967   5.869   6.664  0.00  0.00    +0.000 OA
ENDROOT
TORSDOF 0
REMARK  Name = ../refined-set-2016/3oku/3oku_pocket.pdb
REMARK  163 active torsions:
REMARK  status: ('A' for Active; 'I' for Inactive)
REMARK    1  A    between atoms: _1  and  _3
REMARK    2  A    between atoms: _3  and  _4
REMARK    3  A    between atoms: _3  and  _6
REMARK    4  A    between atoms: _6  and  _7
REMARK    5  A    between atoms: _17  and  _19
REMARK    6  A    between atoms: _19  and  _20
REMARK    7  A    between atoms: _19  and  _22
REMARK    8  A    between atoms: _22  and  _23
REMARK    9  A    between atoms: _28  and  _29
REMARK   10  A    between atoms: _31  and  _33
REMARK   11  A    between atoms: _33  and  _34
REMARK   12  A    between atoms: _33  and  _36
REMARK   13  A    between atoms: _36  and  _37
REMARK   14  A    between atoms: _43  and  _45
REMARK   15  A    between atoms: _45  and  _46
REMARK   16  A    between atoms: _45  and  _48
REMARK   17  A    between atoms: _48  and  _49
REMARK   18  A    between atoms: _52  and  _53
REMARK   19  A    between atoms: _58  and  _60
REMARK   20  A    between atoms: _60  and  _61
REMARK   21  A    between atoms: _60  and  _63
REMARK   22  A    between atoms: _63  and  _64
REMARK   23  A    between atoms: _69  and  _71
REMARK   24  A    between atoms: _71  and  _72
REMARK   25  A    between atoms: _71  and  _74
REMARK   26  A    between atoms: _74  and  _75
REMARK   27  A    between atoms: _80  and  _82
REMARK   28  A    between atoms: _82  and  _83
REMARK   29  A    between atoms: _86  and  _88
REMARK   30  A    between atoms: _88  and  _89
REMARK   31  A    between atoms: _88  and  _91
REMARK   32  A    between atoms: _91  and  _92
REMARK   33  A    between atoms: _97  and  _99
REMARK   34  A    between atoms: _99  and  _100
REMARK   35  A    between atoms: _99  and  _102
REMARK   36  A    between atoms: _102  and  _103
REMARK   37  A    between atoms: _106  and  _108
REMARK   38  A    between atoms: _108  and  _109
REMARK   39  A    between atoms: _108  and  _111
REMARK   40  A    between atoms: _111  and  _112
REMARK   41  A    between atoms: _112  and  _113
REMARK   42  A    between atoms: _118  and  _120
REMARK   43  A    between atoms: _120  and  _121
REMARK   44  A    between atoms: _120  and  _123
REMARK   45  A    between atoms: _123  and  _124
REMARK   46  A    between atoms: _130  and  _132
REMARK   47  A    between atoms: _143  and  _146
REMARK   48  A    between atoms: _146  and  _147
REMARK   49  A    between atoms: _155  and  _156
REMARK   50  A    between atoms: _164  and  _166
REMARK   51  A    between atoms: _166  and  _167
REMARK   52  A    between atoms: _166  and  _169
REMARK   53  A    between atoms: _169  and  _170
REMARK   54  A    between atoms: _170  and  _171
REMARK   55  A    between atoms: _174  and  _176
REMARK   56  A    between atoms: _176  and  _177
REMARK   57  A    between atoms: _176  and  _179
REMARK   58  A    between atoms: _179  and  _180
REMARK   59  A    between atoms: _185  and  _187
REMARK   60  A    between atoms: _187  and  _188
REMARK   61  A    between atoms: _187  and  _190
REMARK   62  A    between atoms: _190  and  _191
REMARK   63  A    between atoms: _191  and  _192
REMARK   64  A    between atoms: _195  and  _197
REMARK   65  A    between atoms: _197  and  _198
REMARK   66  A    between atoms: _197  and  _200
REMARK   67  A    between atoms: _200  and  _201
REMARK   68  A    between atoms: _204  and  _206
REMARK   69  A    between atoms: _206  and  _207
REMARK   70  A    between atoms: _206  and  _209
REMARK   71  A    between atoms: _209  and  _210
REMARK   72  A    between atoms: _211  and  ZN_451
REMARK   73  A    between atoms: _215  and  _217
REMARK   74  A    between atoms: _217  and  _218
REMARK   75  A    between atoms: _217  and  _220
REMARK   76  A    between atoms: _220  and  _221
REMARK   77  A    between atoms: _224  and  _226
REMARK   78  A    between atoms: _226  and  _227
REMARK   79  A    between atoms: _226  and  _229
REMARK   80  A    between atoms: _232  and  _234
REMARK   81  A    between atoms: _234  and  _235
REMARK   82  A    between atoms: _234  and  _237
REMARK   83  A    between atoms: _237  and  _238
REMARK   84  A    between atoms: _243  and  _245
REMARK   85  A    between atoms: _245  and  _246
REMARK   86  A    between atoms: _245  and  _248
REMARK   87  A    between atoms: _248  and  _249
REMARK   88  A    between atoms: _255  and  _257
REMARK   89  A    between atoms: _257  and  _258
REMARK   90  A    between atoms: _260  and  _262
REMARK   91  A    between atoms: _262  and  _263
REMARK   92  A    between atoms: _262  and  _265
REMARK   93  A    between atoms: _265  and  _266
REMARK   94  A    between atoms: _266  and  _267
REMARK   95  A    between atoms: _267  and  _268
REMARK   96  A    between atoms: _268  and  _269
REMARK   97  A    between atoms: _273  and  _275
REMARK   98  A    between atoms: _275  and  _276
REMARK   99  A    between atoms: _275  and  _278
REMARK  100  A    between atoms: _281  and  _283
REMARK  101  A    between atoms: _283  and  _284
REMARK  102  A    between atoms: _283  and  _286
REMARK  103  A    between atoms: _286  and  _287
REMARK  104  A    between atoms: _287  and  _288
REMARK  105  A    between atoms: _293  and  _295
REMARK  106  A    between atoms: _295  and  _296
REMARK  107  A    between atoms: _295  and  _298
REMARK  108  A    between atoms: _298  and  _299
REMARK  109  A    between atoms: _302  and  _304
REMARK  110  A    between atoms: _304  and  _305
REMARK  111  A    between atoms: _308  and  _310
REMARK  112  A    between atoms: _310  and  _311
REMARK  113  A    between atoms: _310  and  _313
REMARK  114  A    between atoms: _316  and  _318
REMARK  115  A    between atoms: _318  and  _319
REMARK  116  A    between atoms: _318  and  _321
REMARK  117  A    between atoms: _321  and  _322
REMARK  118  A    between atoms: _325  and  _327
REMARK  119  A    between atoms: _327  and  _328
REMARK  120  A    between atoms: _327  and  _330
REMARK  121  A    between atoms: _330  and  _331
REMARK  122  A    between atoms: _333  and  _335
REMARK  123  A    between atoms: _335  and  _336
REMARK  124  A    between atoms: _335  and  _338
REMARK  125  A    between atoms: _338  and  _339
REMARK  126  A    between atoms: _342  and  _344
REMARK  127  A    between atoms: _344  and  _345
REMARK  128  A    between atoms: _344  and  _347
REMARK  129  A    between atoms: _347  and  _348
REMARK  130  A    between atoms: _351  and  _353
REMARK  131  A    between atoms: _353  and  _354
REMARK  132  A    between atoms: _353  and  _356
REMARK  133  A    between atoms: _356  and  _357
REMARK  134  A    between atoms: _361  and  _362
REMARK  135  A    between atoms: _368  and  _369
REMARK  136  A    between atoms: _374  and  _376
REMARK  137  A    between atoms: _376  and  _377
REMARK  138  A    between atoms: _376  and  _379
REMARK  139  A    between atoms: _379  and  _380
REMARK  140  A    between atoms: _383  and  _385
REMARK  141  A    between atoms: _385  and  _386
REMARK  142  A    between atoms: _385  and  _388
REMARK  143  A    between atoms: _388  and  _389
REMARK  144  A    between atoms: _392  and  _394
REMARK  145  A    between atoms: _394  and  _395
REMARK  146  A    between atoms: _394  and  _397
REMARK  147  A    between atoms: _399  and  _401
REMARK  148  A    between atoms: _401  and  _402
REMARK  149  A    between atoms: _401  and  _404
REMARK  150  A    between atoms: _407  and  _409
REMARK  151  A    between atoms: _409  and  _410
REMARK  152  A    between atoms: _409  and  _412
REMARK  153  A    between atoms: _412  and  _413
REMARK  154  A    between atoms: _423  and  _425
REMARK  155  A    between atoms: _425  and  _426
REMARK  156  A    between atoms: _425  and  _428
REMARK  157  A    between atoms: _428  and  _429
REMARK  158  A    between atoms: _434  and  _436
REMARK  159  A    between atoms: _436  and  _437
REMARK  160  A    between atoms: _436  and  _439
REMARK  161  A    between atoms: _439  and  _440
REMARK  162  A    between atoms: _440  and  _441
REMARK  163  A    between atoms: _441  and  _442
REMARK                            x       y       z     vdW  Elec       q    Type
REMARK                         _______ _______ _______ _____ _____    ______ ____
ROOT
ATOM      1  O   HOH     1      -4.022   4.789   6.970  0.00  0.00    +0.000 OA
ENDROOT
TORSDOF 0
REMARK  Name = ../refined-set-2016/3oku/3oku_pocket.pdb
REMARK  163 active torsions:
REMARK  status: ('A' for Active; 'I' for Inactive)
REMARK    1  A    between atoms: _1  and  _3
REMARK    2  A    between atoms: _3  and  _4
REMARK    3  A    between atoms: _3  and  _6
REMARK    4  A    between atoms: _6  and  _7
REMARK    5  A    between atoms: _17  and  _19
REMARK    6  A    between atoms: _19  and  _20
REMARK    7  A    between atoms: _19  and  _22
REMARK    8  A    between atoms: _22  and  _23
REMARK    9  A    between atoms: _28  and  _29
REMARK   10  A    between atoms: _31  and  _33
REMARK   11  A    between atoms: _33  and  _34
REMARK   12  A    between atoms: _33  and  _36
REMARK   13  A    between atoms: _36  and  _37
REMARK   14  A    between atoms: _43  and  _45
REMARK   15  A    between atoms: _45  and  _46
REMARK   16  A    between atoms: _45  and  _48
REMARK   17  A    between atoms: _48  and  _49
REMARK   18  A    between atoms: _52  and  _53
REMARK   19  A    between atoms: _58  and  _60
REMARK   20  A    between atoms: _60  and  _61
REMARK   21  A    between atoms: _60  and  _63
REMARK   22  A    between atoms: _63  and  _64
REMARK   23  A    between atoms: _69  and  _71
REMARK   24  A    between atoms: _71  and  _72
REMARK   25  A    between atoms: _71  and  _74
REMARK   26  A    between atoms: _74  and  _75
REMARK   27  A    between atoms: _80  and  _82
REMARK   28  A    between atoms: _82  and  _83
REMARK   29  A    between atoms: _86  and  _88
REMARK   30  A    between atoms: _88  and  _89
REMARK   31  A    between atoms: _88  and  _91
REMARK   32  A    between atoms: _91  and  _92
REMARK   33  A    between atoms: _97  and  _99
REMARK   34  A    between atoms: _99  and  _100
REMARK   35  A    between atoms: _99  and  _102
REMARK   36  A    between atoms: _102  and  _103
REMARK   37  A    between atoms: _106  and  _108
REMARK   38  A    between atoms: _108  and  _109
REMARK   39  A    between atoms: _108  and  _111
REMARK   40  A    between atoms: _111  and  _112
REMARK   41  A    between atoms: _112  and  _113
REMARK   42  A    between atoms: _118  and  _120
REMARK   43  A    between atoms: _120  and  _121
REMARK   44  A    between atoms: _120  and  _123
REMARK   45  A    between atoms: _123  and  _124
REMARK   46  A    between atoms: _130  and  _132
REMARK   47  A    between atoms: _143  and  _146
REMARK   48  A    between atoms: _146  and  _147
REMARK   49  A    between atoms: _155  and  _156
REMARK   50  A    between atoms: _164  and  _166
REMARK   51  A    between atoms: _166  and  _167
REMARK   52  A    between atoms: _166  and  _169
REMARK   53  A    between atoms: _169  and  _170
REMARK   54  A    between atoms: _170  and  _171
REMARK   55  A    between atoms: _174  and  _176
REMARK   56  A    between atoms: _176  and  _177
REMARK   57  A    between atoms: _176  and  _179
REMARK   58  A    between atoms: _179  and  _180
REMARK   59  A    between atoms: _185  and  _187
REMARK   60  A    between atoms: _187  and  _188
REMARK   61  A    between atoms: _187  and  _190
REMARK   62  A    between atoms: _190  and  _191
REMARK   63  A    between atoms: _191  and  _192
REMARK   64  A    between atoms: _195  and  _197
REMARK   65  A    between atoms: _197  and  _198
REMARK   66  A    between atoms: _197  and  _200
REMARK   67  A    between atoms: _200  and  _201
REMARK   68  A    between atoms: _204  and  _206
REMARK   69  A    between atoms: _206  and  _207
REMARK   70  A    between atoms: _206  and  _209
REMARK   71  A    between atoms: _209  and  _210
REMARK   72  A    between atoms: _211  and  ZN_451
REMARK   73  A    between atoms: _215  and  _217
REMARK   74  A    between atoms: _217  and  _218
REMARK   75  A    between atoms: _217  and  _220
REMARK   76  A    between atoms: _220  and  _221
REMARK   77  A    between atoms: _224  and  _226
REMARK   78  A    between atoms: _226  and  _227
REMARK   79  A    between atoms: _226  and  _229
REMARK   80  A    between atoms: _232  and  _234
REMARK   81  A    between atoms: _234  and  _235
REMARK   82  A    between atoms: _234  and  _237
REMARK   83  A    between atoms: _237  and  _238
REMARK   84  A    between atoms: _243  and  _245
REMARK   85  A    between atoms: _245  and  _246
REMARK   86  A    between atoms: _245  and  _248
REMARK   87  A    between atoms: _248  and  _249
REMARK   88  A    between atoms: _255  and  _257
REMARK   89  A    between atoms: _257  and  _258
REMARK   90  A    between atoms: _260  and  _262
REMARK   91  A    between atoms: _262  and  _263
REMARK   92  A    between atoms: _262  and  _265
REMARK   93  A    between atoms: _265  and  _266
REMARK   94  A    between atoms: _266  and  _267
REMARK   95  A    between atoms: _267  and  _268
REMARK   96  A    between atoms: _268  and  _269
REMARK   97  A    between atoms: _273  and  _275
REMARK   98  A    between atoms: _275  and  _276
REMARK   99  A    between atoms: _275  and  _278
REMARK  100  A    between atoms: _281  and  _283
REMARK  101  A    between atoms: _283  and  _284
REMARK  102  A    between atoms: _283  and  _286
REMARK  103  A    between atoms: _286  and  _287
REMARK  104  A    between atoms: _287  and  _288
REMARK  105  A    between atoms: _293  and  _295
REMARK  106  A    between atoms: _295  and  _296
REMARK  107  A    between atoms: _295  and  _298
REMARK  108  A    between atoms: _298  and  _299
REMARK  109  A    between atoms: _302  and  _304
REMARK  110  A    between atoms: _304  and  _305
REMARK  111  A    between atoms: _308  and  _310
REMARK  112  A    between atoms: _310  and  _311
REMARK  113  A    between atoms: _310  and  _313
REMARK  114  A    between atoms: _316  and  _318
REMARK  115  A    between atoms: _318  and  _319
REMARK  116  A    between atoms: _318  and  _321
REMARK  117  A    between atoms: _321  and  _322
REMARK  118  A    between atoms: _325  and  _327
REMARK  119  A    between atoms: _327  and  _328
REMARK  120  A    between atoms: _327  and  _330
REMARK  121  A    between atoms: _330  and  _331
REMARK  122  A    between atoms: _333  and  _335
REMARK  123  A    between atoms: _335  and  _336
REMARK  124  A    between atoms: _335  and  _338
REMARK  125  A    between atoms: _338  and  _339
REMARK  126  A    between atoms: _342  and  _344
REMARK  127  A    between atoms: _344  and  _345
REMARK  128  A    between atoms: _344  and  _347
REMARK  129  A    between atoms: _347  and  _348
REMARK  130  A    between atoms: _351  and  _353
REMARK  131  A    between atoms: _353  and  _354
REMARK  132  A    between atoms: _353  and  _356
REMARK  133  A    between atoms: _356  and  _357
REMARK  134  A    between atoms: _361  and  _362
REMARK  135  A    between atoms: _368  and  _369
REMARK  136  A    between atoms: _374  and  _376
REMARK  137  A    between atoms: _376  and  _377
REMARK  138  A    between atoms: _376  and  _379
REMARK  139  A    between atoms: _379  and  _380
REMARK  140  A    between atoms: _383  and  _385
REMARK  141  A    between atoms: _385  and  _386
REMARK  142  A    between atoms: _385  and  _388
REMARK  143  A    between atoms: _388  and  _389
REMARK  144  A    between atoms: _392  and  _394
REMARK  145  A    between atoms: _394  and  _395
REMARK  146  A    between atoms: _394  and  _397
REMARK  147  A    between atoms: _399  and  _401
REMARK  148  A    between atoms: _401  and  _402
REMARK  149  A    between atoms: _401  and  _404
REMARK  150  A    between atoms: _407  and  _409
REMARK  151  A    between atoms: _409  and  _410
REMARK  152  A    between atoms: _409  and  _412
REMARK  153  A    between atoms: _412  and  _413
REMARK  154  A    between atoms: _423  and  _425
REMARK  155  A    between atoms: _425  and  _426
REMARK  156  A    between atoms: _425  and  _428
REMARK  157  A    between atoms: _428  and  _429
REMARK  158  A    between atoms: _434  and  _436
REMARK  159  A    between atoms: _436  and  _437
REMARK  160  A    between atoms: _436  and  _439
REMARK  161  A    between atoms: _439  and  _440
REMARK  162  A    between atoms: _440  and  _441
REMARK  163  A    between atoms: _441  and  _442
REMARK                            x       y       z     vdW  Elec       q    Type
REMARK                         _______ _______ _______ _____ _____    ______ ____
ROOT
ATOM      1  O   HOH     1       3.176   4.271  11.980  0.00  0.00    +0.000 OA
ENDROOT
TORSDOF 0
REMARK  Name = ../refined-set-2016/3oku/3oku_pocket.pdb
REMARK  163 active torsions:
REMARK  status: ('A' for Active; 'I' for Inactive)
REMARK    1  A    between atoms: _1  and  _3
REMARK    2  A    between atoms: _3  and  _4
REMARK    3  A    between atoms: _3  and  _6
REMARK    4  A    between atoms: _6  and  _7
REMARK    5  A    between atoms: _17  and  _19
REMARK    6  A    between atoms: _19  and  _20
REMARK    7  A    between atoms: _19  and  _22
REMARK    8  A    between atoms: _22  and  _23
REMARK    9  A    between atoms: _28  and  _29
REMARK   10  A    between atoms: _31  and  _33
REMARK   11  A    between atoms: _33  and  _34
REMARK   12  A    between atoms: _33  and  _36
REMARK   13  A    between atoms: _36  and  _37
REMARK   14  A    between atoms: _43  and  _45
REMARK   15  A    between atoms: _45  and  _46
REMARK   16  A    between atoms: _45  and  _48
REMARK   17  A    between atoms: _48  and  _49
REMARK   18  A    between atoms: _52  and  _53
REMARK   19  A    between atoms: _58  and  _60
REMARK   20  A    between atoms: _60  and  _61
REMARK   21  A    between atoms: _60  and  _63
REMARK   22  A    between atoms: _63  and  _64
REMARK   23  A    between atoms: _69  and  _71
REMARK   24  A    between atoms: _71  and  _72
REMARK   25  A    between atoms: _71  and  _74
REMARK   26  A    between atoms: _74  and  _75
REMARK   27  A    between atoms: _80  and  _82
REMARK   28  A    between atoms: _82  and  _83
REMARK   29  A    between atoms: _86  and  _88
REMARK   30  A    between atoms: _88  and  _89
REMARK   31  A    between atoms: _88  and  _91
REMARK   32  A    between atoms: _91  and  _92
REMARK   33  A    between atoms: _97  and  _99
REMARK   34  A    between atoms: _99  and  _100
REMARK   35  A    between atoms: _99  and  _102
REMARK   36  A    between atoms: _102  and  _103
REMARK   37  A    between atoms: _106  and  _108
REMARK   38  A    between atoms: _108  and  _109
REMARK   39  A    between atoms: _108  and  _111
REMARK   40  A    between atoms: _111  and  _112
REMARK   41  A    between atoms: _112  and  _113
REMARK   42  A    between atoms: _118  and  _120
REMARK   43  A    between atoms: _120  and  _121
REMARK   44  A    between atoms: _120  and  _123
REMARK   45  A    between atoms: _123  and  _124
REMARK   46  A    between atoms: _130  and  _132
REMARK   47  A    between atoms: _143  and  _146
REMARK   48  A    between atoms: _146  and  _147
REMARK   49  A    between atoms: _155  and  _156
REMARK   50  A    between atoms: _164  and  _166
REMARK   51  A    between atoms: _166  and  _167
REMARK   52  A    between atoms: _166  and  _169
REMARK   53  A    between atoms: _169  and  _170
REMARK   54  A    between atoms: _170  and  _171
REMARK   55  A    between atoms: _174  and  _176
REMARK   56  A    between atoms: _176  and  _177
REMARK   57  A    between atoms: _176  and  _179
REMARK   58  A    between atoms: _179  and  _180
REMARK   59  A    between atoms: _185  and  _187
REMARK   60  A    between atoms: _187  and  _188
REMARK   61  A    between atoms: _187  and  _190
REMARK   62  A    between atoms: _190  and  _191
REMARK   63  A    between atoms: _191  and  _192
REMARK   64  A    between atoms: _195  and  _197
REMARK   65  A    between atoms: _197  and  _198
REMARK   66  A    between atoms: _197  and  _200
REMARK   67  A    between atoms: _200  and  _201
REMARK   68  A    between atoms: _204  and  _206
REMARK   69  A    between atoms: _206  and  _207
REMARK   70  A    between atoms: _206  and  _209
REMARK   71  A    between atoms: _209  and  _210
REMARK   72  A    between atoms: _211  and  ZN_451
REMARK   73  A    between atoms: _215  and  _217
REMARK   74  A    between atoms: _217  and  _218
REMARK   75  A    between atoms: _217  and  _220
REMARK   76  A    between atoms: _220  and  _221
REMARK   77  A    between atoms: _224  and  _226
REMARK   78  A    between atoms: _226  and  _227
REMARK   79  A    between atoms: _226  and  _229
REMARK   80  A    between atoms: _232  and  _234
REMARK   81  A    between atoms: _234  and  _235
REMARK   82  A    between atoms: _234  and  _237
REMARK   83  A    between atoms: _237  and  _238
REMARK   84  A    between atoms: _243  and  _245
REMARK   85  A    between atoms: _245  and  _246
REMARK   86  A    between atoms: _245  and  _248
REMARK   87  A    between atoms: _248  and  _249
REMARK   88  A    between atoms: _255  and  _257
REMARK   89  A    between atoms: _257  and  _258
REMARK   90  A    between atoms: _260  and  _262
REMARK   91  A    between atoms: _262  and  _263
REMARK   92  A    between atoms: _262  and  _265
REMARK   93  A    between atoms: _265  and  _266
REMARK   94  A    between atoms: _266  and  _267
REMARK   95  A    between atoms: _267  and  _268
REMARK   96  A    between atoms: _268  and  _269
REMARK   97  A    between atoms: _273  and  _275
REMARK   98  A    between atoms: _275  and  _276
REMARK   99  A    between atoms: _275  and  _278
REMARK  100  A    between atoms: _281  and  _283
REMARK  101  A    between atoms: _283  and  _284
REMARK  102  A    between atoms: _283  and  _286
REMARK  103  A    between atoms: _286  and  _287
REMARK  104  A    between atoms: _287  and  _288
REMARK  105  A    between atoms: _293  and  _295
REMARK  106  A    between atoms: _295  and  _296
REMARK  107  A    between atoms: _295  and  _298
REMARK  108  A    between atoms: _298  and  _299
REMARK  109  A    between atoms: _302  and  _304
REMARK  110  A    between atoms: _304  and  _305
REMARK  111  A    between atoms: _308  and  _310
REMARK  112  A    between atoms: _310  and  _311
REMARK  113  A    between atoms: _310  and  _313
REMARK  114  A    between atoms: _316  and  _318
REMARK  115  A    between atoms: _318  and  _319
REMARK  116  A    between atoms: _318  and  _321
REMARK  117  A    between atoms: _321  and  _322
REMARK  118  A    between atoms: _325  and  _327
REMARK  119  A    between atoms: _327  and  _328
REMARK  120  A    between atoms: _327  and  _330
REMARK  121  A    between atoms: _330  and  _331
REMARK  122  A    between atoms: _333  and  _335
REMARK  123  A    between atoms: _335  and  _336
REMARK  124  A    between atoms: _335  and  _338
REMARK  125  A    between atoms: _338  and  _339
REMARK  126  A    between atoms: _342  and  _344
REMARK  127  A    between atoms: _344  and  _345
REMARK  128  A    between atoms: _344  and  _347
REMARK  129  A    between atoms: _347  and  _348
REMARK  130  A    between atoms: _351  and  _353
REMARK  131  A    between atoms: _353  and  _354
REMARK  132  A    between atoms: _353  and  _356
REMARK  133  A    between atoms: _356  and  _357
REMARK  134  A    between atoms: _361  and  _362
REMARK  135  A    between atoms: _368  and  _369
REMARK  136  A    between atoms: _374  and  _376
REMARK  137  A    between atoms: _376  and  _377
REMARK  138  A    between atoms: _376  and  _379
REMARK  139  A    between atoms: _379  and  _380
REMARK  140  A    between atoms: _383  and  _385
REMARK  141  A    between atoms: _385  and  _386
REMARK  142  A    between atoms: _385  and  _388
REMARK  143  A    between atoms: _388  and  _389
REMARK  144  A    between atoms: _392  and  _394
REMARK  145  A    between atoms: _394  and  _395
REMARK  146  A    between atoms: _394  and  _397
REMARK  147  A    between atoms: _399  and  _401
REMARK  148  A    between atoms: _401  and  _402
REMARK  149  A    between atoms: _401  and  _404
REMARK  150  A    between atoms: _407  and  _409
REMARK  151  A    between atoms: _409  and  _410
REMARK  152  A    between atoms: _409  and  _412
REMARK  153  A    between atoms: _412  and  _413
REMARK  154  A    between atoms: _423  and  _425
REMARK  155  A    between atoms: _425  and  _426
REMARK  156  A    between atoms: _425  and  _428
REMARK  157  A    between atoms: _428  and  _429
REMARK  158  A    between atoms: _434  and  _436
REMARK  159  A    between atoms: _436  and  _437
REMARK  160  A    between atoms: _436  and  _439
REMARK  161  A    between atoms: _439  and  _440
REMARK  162  A    between atoms: _440  and  _441
REMARK  163  A    between atoms: _441  and  _442
REMARK                            x       y       z     vdW  Elec       q    Type
REMARK                         _______ _______ _______ _____ _____    ______ ____
ROOT
ATOM      1  O   HOH     1      -0.438  13.805  15.885  0.00  0.00    +0.000 OA
ENDROOT
TORSDOF 0
REMARK  Name = ../refined-set-2016/3oku/3oku_pocket.pdb
REMARK  163 active torsions:
REMARK  status: ('A' for Active; 'I' for Inactive)
REMARK    1  A    between atoms: _1  and  _3
REMARK    2  A    between atoms: _3  and  _4
REMARK    3  A    between atoms: _3  and  _6
REMARK    4  A    between atoms: _6  and  _7
REMARK    5  A    between atoms: _17  and  _19
REMARK    6  A    between atoms: _19  and  _20
REMARK    7  A    between atoms: _19  and  _22
REMARK    8  A    between atoms: _22  and  _23
REMARK    9  A    between atoms: _28  and  _29
REMARK   10  A    between atoms: _31  and  _33
REMARK   11  A    between atoms: _33  and  _34
REMARK   12  A    between atoms: _33  and  _36
REMARK   13  A    between atoms: _36  and  _37
REMARK   14  A    between atoms: _43  and  _45
REMARK   15  A    between atoms: _45  and  _46
REMARK   16  A    between atoms: _45  and  _48
REMARK   17  A    between atoms: _48  and  _49
REMARK   18  A    between atoms: _52  and  _53
REMARK   19  A    between atoms: _58  and  _60
REMARK   20  A    between atoms: _60  and  _61
REMARK   21  A    between atoms: _60  and  _63
REMARK   22  A    between atoms: _63  and  _64
REMARK   23  A    between atoms: _69  and  _71
REMARK   24  A    between atoms: _71  and  _72
REMARK   25  A    between atoms: _71  and  _74
REMARK   26  A    between atoms: _74  and  _75
REMARK   27  A    between atoms: _80  and  _82
REMARK   28  A    between atoms: _82  and  _83
REMARK   29  A    between atoms: _86  and  _88
REMARK   30  A    between atoms: _88  and  _89
REMARK   31  A    between atoms: _88  and  _91
REMARK   32  A    between atoms: _91  and  _92
REMARK   33  A    between atoms: _97  and  _99
REMARK   34  A    between atoms: _99  and  _100
REMARK   35  A    between atoms: _99  and  _102
REMARK   36  A    between atoms: _102  and  _103
REMARK   37  A    between atoms: _106  and  _108
REMARK   38  A    between atoms: _108  and  _109
REMARK   39  A    between atoms: _108  and  _111
REMARK   40  A    between atoms: _111  and  _112
REMARK   41  A    between atoms: _112  and  _113
REMARK   42  A    between atoms: _118  and  _120
REMARK   43  A    between atoms: _120  and  _121
REMARK   44  A    between atoms: _120  and  _123
REMARK   45  A    between atoms: _123  and  _124
REMARK   46  A    between atoms: _130  and  _132
REMARK   47  A    between atoms: _143  and  _146
REMARK   48  A    between atoms: _146  and  _147
REMARK   49  A    between atoms: _155  and  _156
REMARK   50  A    between atoms: _164  and  _166
REMARK   51  A    between atoms: _166  and  _167
REMARK   52  A    between atoms: _166  and  _169
REMARK   53  A    between atoms: _169  and  _170
REMARK   54  A    between atoms: _170  and  _171
REMARK   55  A    between atoms: _174  and  _176
REMARK   56  A    between atoms: _176  and  _177
REMARK   57  A    between atoms: _176  and  _179
REMARK   58  A    between atoms: _179  and  _180
REMARK   59  A    between atoms: _185  and  _187
REMARK   60  A    between atoms: _187  and  _188
REMARK   61  A    between atoms: _187  and  _190
REMARK   62  A    between atoms: _190  and  _191
REMARK   63  A    between atoms: _191  and  _192
REMARK   64  A    between atoms: _195  and  _197
REMARK   65  A    between atoms: _197  and  _198
REMARK   66  A    between atoms: _197  and  _200
REMARK   67  A    between atoms: _200  and  _201
REMARK   68  A    between atoms: _204  and  _206
REMARK   69  A    between atoms: _206  and  _207
REMARK   70  A    between atoms: _206  and  _209
REMARK   71  A    between atoms: _209  and  _210
REMARK   72  A    between atoms: _211  and  ZN_451
REMARK   73  A    between atoms: _215  and  _217
REMARK   74  A    between atoms: _217  and  _218
REMARK   75  A    between atoms: _217  and  _220
REMARK   76  A    between atoms: _220  and  _221
REMARK   77  A    between atoms: _224  and  _226
REMARK   78  A    between atoms: _226  and  _227
REMARK   79  A    between atoms: _226  and  _229
REMARK   80  A    between atoms: _232  and  _234
REMARK   81  A    between atoms: _234  and  _235
REMARK   82  A    between atoms: _234  and  _237
REMARK   83  A    between atoms: _237  and  _238
REMARK   84  A    between atoms: _243  and  _245
REMARK   85  A    between atoms: _245  and  _246
REMARK   86  A    between atoms: _245  and  _248
REMARK   87  A    between atoms: _248  and  _249
REMARK   88  A    between atoms: _255  and  _257
REMARK   89  A    between atoms: _257  and  _258
REMARK   90  A    between atoms: _260  and  _262
REMARK   91  A    between atoms: _262  and  _263
REMARK   92  A    between atoms: _262  and  _265
REMARK   93  A    between atoms: _265  and  _266
REMARK   94  A    between atoms: _266  and  _267
REMARK   95  A    between atoms: _267  and  _268
REMARK   96  A    between atoms: _268  and  _269
REMARK   97  A    between atoms: _273  and  _275
REMARK   98  A    between atoms: _275  and  _276
REMARK   99  A    between atoms: _275  and  _278
REMARK  100  A    between atoms: _281  and  _283
REMARK  101  A    between atoms: _283  and  _284
REMARK  102  A    between atoms: _283  and  _286
REMARK  103  A    between atoms: _286  and  _287
REMARK  104  A    between atoms: _287  and  _288
REMARK  105  A    between atoms: _293  and  _295
REMARK  106  A    between atoms: _295  and  _296
REMARK  107  A    between atoms: _295  and  _298
REMARK  108  A    between atoms: _298  and  _299
REMARK  109  A    between atoms: _302  and  _304
REMARK  110  A    between atoms: _304  and  _305
REMARK  111  A    between atoms: _308  and  _310
REMARK  112  A    between atoms: _310  and  _311
REMARK  113  A    between atoms: _310  and  _313
REMARK  114  A    between atoms: _316  and  _318
REMARK  115  A    between atoms: _318  and  _319
REMARK  116  A    between atoms: _318  and  _321
REMARK  117  A    between atoms: _321  and  _322
REMARK  118  A    between atoms: _325  and  _327
REMARK  119  A    between atoms: _327  and  _328
REMARK  120  A    between atoms: _327  and  _330
REMARK  121  A    between atoms: _330  and  _331
REMARK  122  A    between atoms: _333  and  _335
REMARK  123  A    between atoms: _335  and  _336
REMARK  124  A    between atoms: _335  and  _338
REMARK  125  A    between atoms: _338  and  _339
REMARK  126  A    between atoms: _342  and  _344
REMARK  127  A    between atoms: _344  and  _345
REMARK  128  A    between atoms: _344  and  _347
REMARK  129  A    between atoms: _347  and  _348
REMARK  130  A    between atoms: _351  and  _353
REMARK  131  A    between atoms: _353  and  _354
REMARK  132  A    between atoms: _353  and  _356
REMARK  133  A    between atoms: _356  and  _357
REMARK  134  A    between atoms: _361  and  _362
REMARK  135  A    between atoms: _368  and  _369
REMARK  136  A    between atoms: _374  and  _376
REMARK  137  A    between atoms: _376  and  _377
REMARK  138  A    between atoms: _376  and  _379
REMARK  139  A    between atoms: _379  and  _380
REMARK  140  A    between atoms: _383  and  _385
REMARK  141  A    between atoms: _385  and  _386
REMARK  142  A    between atoms: _385  and  _388
REMARK  143  A    between atoms: _388  and  _389
REMARK  144  A    between atoms: _392  and  _394
REMARK  145  A    between atoms: _394  and  _395
REMARK  146  A    between atoms: _394  and  _397
REMARK  147  A    between atoms: _399  and  _401
REMARK  148  A    between atoms: _401  and  _402
REMARK  149  A    between atoms: _401  and  _404
REMARK  150  A    between atoms: _407  and  _409
REMARK  151  A    between atoms: _409  and  _410
REMARK  152  A    between atoms: _409  and  _412
REMARK  153  A    between atoms: _412  and  _413
REMARK  154  A    between atoms: _423  and  _425
REMARK  155  A    between atoms: _425  and  _426
REMARK  156  A    between atoms: _425  and  _428
REMARK  157  A    between atoms: _428  and  _429
REMARK  158  A    between atoms: _434  and  _436
REMARK  159  A    between atoms: _436  and  _437
REMARK  160  A    between atoms: _436  and  _439
REMARK  161  A    between atoms: _439  and  _440
REMARK  162  A    between atoms: _440  and  _441
REMARK  163  A    between atoms: _441  and  _442
REMARK                            x       y       z     vdW  Elec       q    Type
REMARK                         _______ _______ _______ _____ _____    ______ ____
ROOT
ATOM      1  O   HOH     1      -8.258   7.687   8.466  0.00  0.00    +0.000 OA
ENDROOT
TORSDOF 0
REMARK  Name = ../refined-set-2016/3oku/3oku_pocket.pdb
REMARK  163 active torsions:
REMARK  status: ('A' for Active; 'I' for Inactive)
REMARK    1  A    between atoms: _1  and  _3
REMARK    2  A    between atoms: _3  and  _4
REMARK    3  A    between atoms: _3  and  _6
REMARK    4  A    between atoms: _6  and  _7
REMARK    5  A    between atoms: _17  and  _19
REMARK    6  A    between atoms: _19  and  _20
REMARK    7  A    between atoms: _19  and  _22
REMARK    8  A    between atoms: _22  and  _23
REMARK    9  A    between atoms: _28  and  _29
REMARK   10  A    between atoms: _31  and  _33
REMARK   11  A    between atoms: _33  and  _34
REMARK   12  A    between atoms: _33  and  _36
REMARK   13  A    between atoms: _36  and  _37
REMARK   14  A    between atoms: _43  and  _45
REMARK   15  A    between atoms: _45  and  _46
REMARK   16  A    between atoms: _45  and  _48
REMARK   17  A    between atoms: _48  and  _49
REMARK   18  A    between atoms: _52  and  _53
REMARK   19  A    between atoms: _58  and  _60
REMARK   20  A    between atoms: _60  and  _61
REMARK   21  A    between atoms: _60  and  _63
REMARK   22  A    between atoms: _63  and  _64
REMARK   23  A    between atoms: _69  and  _71
REMARK   24  A    between atoms: _71  and  _72
REMARK   25  A    between atoms: _71  and  _74
REMARK   26  A    between atoms: _74  and  _75
REMARK   27  A    between atoms: _80  and  _82
REMARK   28  A    between atoms: _82  and  _83
REMARK   29  A    between atoms: _86  and  _88
REMARK   30  A    between atoms: _88  and  _89
REMARK   31  A    between atoms: _88  and  _91
REMARK   32  A    between atoms: _91  and  _92
REMARK   33  A    between atoms: _97  and  _99
REMARK   34  A    between atoms: _99  and  _100
REMARK   35  A    between atoms: _99  and  _102
REMARK   36  A    between atoms: _102  and  _103
REMARK   37  A    between atoms: _106  and  _108
REMARK   38  A    between atoms: _108  and  _109
REMARK   39  A    between atoms: _108  and  _111
REMARK   40  A    between atoms: _111  and  _112
REMARK   41  A    between atoms: _112  and  _113
REMARK   42  A    between atoms: _118  and  _120
REMARK   43  A    between atoms: _120  and  _121
REMARK   44  A    between atoms: _120  and  _123
REMARK   45  A    between atoms: _123  and  _124
REMARK   46  A    between atoms: _130  and  _132
REMARK   47  A    between atoms: _143  and  _146
REMARK   48  A    between atoms: _146  and  _147
REMARK   49  A    between atoms: _155  and  _156
REMARK   50  A    between atoms: _164  and  _166
REMARK   51  A    between atoms: _166  and  _167
REMARK   52  A    between atoms: _166  and  _169
REMARK   53  A    between atoms: _169  and  _170
REMARK   54  A    between atoms: _170  and  _171
REMARK   55  A    between atoms: _174  and  _176
REMARK   56  A    between atoms: _176  and  _177
REMARK   57  A    between atoms: _176  and  _179
REMARK   58  A    between atoms: _179  and  _180
REMARK   59  A    between atoms: _185  and  _187
REMARK   60  A    between atoms: _187  and  _188
REMARK   61  A    between atoms: _187  and  _190
REMARK   62  A    between atoms: _190  and  _191
REMARK   63  A    between atoms: _191  and  _192
REMARK   64  A    between atoms: _195  and  _197
REMARK   65  A    between atoms: _197  and  _198
REMARK   66  A    between atoms: _197  and  _200
REMARK   67  A    between atoms: _200  and  _201
REMARK   68  A    between atoms: _204  and  _206
REMARK   69  A    between atoms: _206  and  _207
REMARK   70  A    between atoms: _206  and  _209
REMARK   71  A    between atoms: _209  and  _210
REMARK   72  A    between atoms: _211  and  ZN_451
REMARK   73  A    between atoms: _215  and  _217
REMARK   74  A    between atoms: _217  and  _218
REMARK   75  A    between atoms: _217  and  _220
REMARK   76  A    between atoms: _220  and  _221
REMARK   77  A    between atoms: _224  and  _226
REMARK   78  A    between atoms: _226  and  _227
REMARK   79  A    between atoms: _226  and  _229
REMARK   80  A    between atoms: _232  and  _234
REMARK   81  A    between atoms: _234  and  _235
REMARK   82  A    between atoms: _234  and  _237
REMARK   83  A    between atoms: _237  and  _238
REMARK   84  A    between atoms: _243  and  _245
REMARK   85  A    between atoms: _245  and  _246
REMARK   86  A    between atoms: _245  and  _248
REMARK   87  A    between atoms: _248  and  _249
REMARK   88  A    between atoms: _255  and  _257
REMARK   89  A    between atoms: _257  and  _258
REMARK   90  A    between atoms: _260  and  _262
REMARK   91  A    between atoms: _262  and  _263
REMARK   92  A    between atoms: _262  and  _265
REMARK   93  A    between atoms: _265  and  _266
REMARK   94  A    between atoms: _266  and  _267
REMARK   95  A    between atoms: _267  and  _268
REMARK   96  A    between atoms: _268  and  _269
REMARK   97  A    between atoms: _273  and  _275
REMARK   98  A    between atoms: _275  and  _276
REMARK   99  A    between atoms: _275  and  _278
REMARK  100  A    between atoms: _281  and  _283
REMARK  101  A    between atoms: _283  and  _284
REMARK  102  A    between atoms: _283  and  _286
REMARK  103  A    between atoms: _286  and  _287
REMARK  104  A    between atoms: _287  and  _288
REMARK  105  A    between atoms: _293  and  _295
REMARK  106  A    between atoms: _295  and  _296
REMARK  107  A    between atoms: _295  and  _298
REMARK  108  A    between atoms: _298  and  _299
REMARK  109  A    between atoms: _302  and  _304
REMARK  110  A    between atoms: _304  and  _305
REMARK  111  A    between atoms: _308  and  _310
REMARK  112  A    between atoms: _310  and  _311
REMARK  113  A    between atoms: _310  and  _313
REMARK  114  A    between atoms: _316  and  _318
REMARK  115  A    between atoms: _318  and  _319
REMARK  116  A    between atoms: _318  and  _321
REMARK  117  A    between atoms: _321  and  _322
REMARK  118  A    between atoms: _325  and  _327
REMARK  119  A    between atoms: _327  and  _328
REMARK  120  A    between atoms: _327  and  _330
REMARK  121  A    between atoms: _330  and  _331
REMARK  122  A    between atoms: _333  and  _335
REMARK  123  A    between atoms: _335  and  _336
REMARK  124  A    between atoms: _335  and  _338
REMARK  125  A    between atoms: _338  and  _339
REMARK  126  A    between atoms: _342  and  _344
REMARK  127  A    between atoms: _344  and  _345
REMARK  128  A    between atoms: _344  and  _347
REMARK  129  A    between atoms: _347  and  _348
REMARK  130  A    between atoms: _351  and  _353
REMARK  131  A    between atoms: _353  and  _354
REMARK  132  A    between atoms: _353  and  _356
REMARK  133  A    between atoms: _356  and  _357
REMARK  134  A    between atoms: _361  and  _362
REMARK  135  A    between atoms: _368  and  _369
REMARK  136  A    between atoms: _374  and  _376
REMARK  137  A    between atoms: _376  and  _377
REMARK  138  A    between atoms: _376  and  _379
REMARK  139  A    between atoms: _379  and  _380
REMARK  140  A    between atoms: _383  and  _385
REMARK  141  A    between atoms: _385  and  _386
REMARK  142  A    between atoms: _385  and  _388
REMARK  143  A    between atoms: _388  and  _389
REMARK  144  A    between atoms: _392  and  _394
REMARK  145  A    between atoms: _394  and  _395
REMARK  146  A    between atoms: _394  and  _397
REMARK  147  A    between atoms: _399  and  _401
REMARK  148  A    between atoms: _401  and  _402
REMARK  149  A    between atoms: _401  and  _404
REMARK  150  A    between atoms: _407  and  _409
REMARK  151  A    between atoms: _409  and  _410
REMARK  152  A    between atoms: _409  and  _412
REMARK  153  A    between atoms: _412  and  _413
REMARK  154  A    between atoms: _423  and  _425
REMARK  155  A    between atoms: _425  and  _426
REMARK  156  A    between atoms: _425  and  _428
REMARK  157  A    between atoms: _428  and  _429
REMARK  158  A    between atoms: _434  and  _436
REMARK  159  A    between atoms: _436  and  _437
REMARK  160  A    between atoms: _436  and  _439
REMARK  161  A    between atoms: _439  and  _440
REMARK  162  A    between atoms: _440  and  _441
REMARK  163  A    between atoms: _441  and  _442
REMARK                            x       y       z     vdW  Elec       q    Type
REMARK                         _______ _______ _______ _____ _____    ______ ____
ROOT
ATOM      1  O   HOH     1      -0.505   3.631   9.943  0.00  0.00    +0.000 OA
ENDROOT
TORSDOF 0
REMARK  Name = ../refined-set-2016/3oku/3oku_pocket.pdb
REMARK  163 active torsions:
REMARK  status: ('A' for Active; 'I' for Inactive)
REMARK    1  A    between atoms: _1  and  _3
REMARK    2  A    between atoms: _3  and  _4
REMARK    3  A    between atoms: _3  and  _6
REMARK    4  A    between atoms: _6  and  _7
REMARK    5  A    between atoms: _17  and  _19
REMARK    6  A    between atoms: _19  and  _20
REMARK    7  A    between atoms: _19  and  _22
REMARK    8  A    between atoms: _22  and  _23
REMARK    9  A    between atoms: _28  and  _29
REMARK   10  A    between atoms: _31  and  _33
REMARK   11  A    between atoms: _33  and  _34
REMARK   12  A    between atoms: _33  and  _36
REMARK   13  A    between atoms: _36  and  _37
REMARK   14  A    between atoms: _43  and  _45
REMARK   15  A    between atoms: _45  and  _46
REMARK   16  A    between atoms: _45  and  _48
REMARK   17  A    between atoms: _48  and  _49
REMARK   18  A    between atoms: _52  and  _53
REMARK   19  A    between atoms: _58  and  _60
REMARK   20  A    between atoms: _60  and  _61
REMARK   21  A    between atoms: _60  and  _63
REMARK   22  A    between atoms: _63  and  _64
REMARK   23  A    between atoms: _69  and  _71
REMARK   24  A    between atoms: _71  and  _72
REMARK   25  A    between atoms: _71  and  _74
REMARK   26  A    between atoms: _74  and  _75
REMARK   27  A    between atoms: _80  and  _82
REMARK   28  A    between atoms: _82  and  _83
REMARK   29  A    between atoms: _86  and  _88
REMARK   30  A    between atoms: _88  and  _89
REMARK   31  A    between atoms: _88  and  _91
REMARK   32  A    between atoms: _91  and  _92
REMARK   33  A    between atoms: _97  and  _99
REMARK   34  A    between atoms: _99  and  _100
REMARK   35  A    between atoms: _99  and  _102
REMARK   36  A    between atoms: _102  and  _103
REMARK   37  A    between atoms: _106  and  _108
REMARK   38  A    between atoms: _108  and  _109
REMARK   39  A    between atoms: _108  and  _111
REMARK   40  A    between atoms: _111  and  _112
REMARK   41  A    between atoms: _112  and  _113
REMARK   42  A    between atoms: _118  and  _120
REMARK   43  A    between atoms: _120  and  _121
REMARK   44  A    between atoms: _120  and  _123
REMARK   45  A    between atoms: _123  and  _124
REMARK   46  A    between atoms: _130  and  _132
REMARK   47  A    between atoms: _143  and  _146
REMARK   48  A    between atoms: _146  and  _147
REMARK   49  A    between atoms: _155  and  _156
REMARK   50  A    between atoms: _164  and  _166
REMARK   51  A    between atoms: _166  and  _167
REMARK   52  A    between atoms: _166  and  _169
REMARK   53  A    between atoms: _169  and  _170
REMARK   54  A    between atoms: _170  and  _171
REMARK   55  A    between atoms: _174  and  _176
REMARK   56  A    between atoms: _176  and  _177
REMARK   57  A    between atoms: _176  and  _179
REMARK   58  A    between atoms: _179  and  _180
REMARK   59  A    between atoms: _185  and  _187
REMARK   60  A    between atoms: _187  and  _188
REMARK   61  A    between atoms: _187  and  _190
REMARK   62  A    between atoms: _190  and  _191
REMARK   63  A    between atoms: _191  and  _192
REMARK   64  A    between atoms: _195  and  _197
REMARK   65  A    between atoms: _197  and  _198
REMARK   66  A    between atoms: _197  and  _200
REMARK   67  A    between atoms: _200  and  _201
REMARK   68  A    between atoms: _204  and  _206
REMARK   69  A    between atoms: _206  and  _207
REMARK   70  A    between atoms: _206  and  _209
REMARK   71  A    between atoms: _209  and  _210
REMARK   72  A    between atoms: _211  and  ZN_451
REMARK   73  A    between atoms: _215  and  _217
REMARK   74  A    between atoms: _217  and  _218
REMARK   75  A    between atoms: _217  and  _220
REMARK   76  A    between atoms: _220  and  _221
REMARK   77  A    between atoms: _224  and  _226
REMARK   78  A    between atoms: _226  and  _227
REMARK   79  A    between atoms: _226  and  _229
REMARK   80  A    between atoms: _232  and  _234
REMARK   81  A    between atoms: _234  and  _235
REMARK   82  A    between atoms: _234  and  _237
REMARK   83  A    between atoms: _237  and  _238
REMARK   84  A    between atoms: _243  and  _245
REMARK   85  A    between atoms: _245  and  _246
REMARK   86  A    between atoms: _245  and  _248
REMARK   87  A    between atoms: _248  and  _249
REMARK   88  A    between atoms: _255  and  _257
REMARK   89  A    between atoms: _257  and  _258
REMARK   90  A    between atoms: _260  and  _262
REMARK   91  A    between atoms: _262  and  _263
REMARK   92  A    between atoms: _262  and  _265
REMARK   93  A    between atoms: _265  and  _266
REMARK   94  A    between atoms: _266  and  _267
REMARK   95  A    between atoms: _267  and  _268
REMARK   96  A    between atoms: _268  and  _269
REMARK   97  A    between atoms: _273  and  _275
REMARK   98  A    between atoms: _275  and  _276
REMARK   99  A    between atoms: _275  and  _278
REMARK  100  A    between atoms: _281  and  _283
REMARK  101  A    between atoms: _283  and  _284
REMARK  102  A    between atoms: _283  and  _286
REMARK  103  A    between atoms: _286  and  _287
REMARK  104  A    between atoms: _287  and  _288
REMARK  105  A    between atoms: _293  and  _295
REMARK  106  A    between atoms: _295  and  _296
REMARK  107  A    between atoms: _295  and  _298
REMARK  108  A    between atoms: _298  and  _299
REMARK  109  A    between atoms: _302  and  _304
REMARK  110  A    between atoms: _304  and  _305
REMARK  111  A    between atoms: _308  and  _310
REMARK  112  A    between atoms: _310  and  _311
REMARK  113  A    between atoms: _310  and  _313
REMARK  114  A    between atoms: _316  and  _318
REMARK  115  A    between atoms: _318  and  _319
REMARK  116  A    between atoms: _318  and  _321
REMARK  117  A    between atoms: _321  and  _322
REMARK  118  A    between atoms: _325  and  _327
REMARK  119  A    between atoms: _327  and  _328
REMARK  120  A    between atoms: _327  and  _330
REMARK  121  A    between atoms: _330  and  _331
REMARK  122  A    between atoms: _333  and  _335
REMARK  123  A    between atoms: _335  and  _336
REMARK  124  A    between atoms: _335  and  _338
REMARK  125  A    between atoms: _338  and  _339
REMARK  126  A    between atoms: _342  and  _344
REMARK  127  A    between atoms: _344  and  _345
REMARK  128  A    between atoms: _344  and  _347
REMARK  129  A    between atoms: _347  and  _348
REMARK  130  A    between atoms: _351  and  _353
REMARK  131  A    between atoms: _353  and  _354
REMARK  132  A    between atoms: _353  and  _356
REMARK  133  A    between atoms: _356  and  _357
REMARK  134  A    between atoms: _361  and  _362
REMARK  135  A    between atoms: _368  and  _369
REMARK  136  A    between atoms: _374  and  _376
REMARK  137  A    between atoms: _376  and  _377
REMARK  138  A    between atoms: _376  and  _379
REMARK  139  A    between atoms: _379  and  _380
REMARK  140  A    between atoms: _383  and  _385
REMARK  141  A    between atoms: _385  and  _386
REMARK  142  A    between atoms: _385  and  _388
REMARK  143  A    between atoms: _388  and  _389
REMARK  144  A    between atoms: _392  and  _394
REMARK  145  A    between atoms: _394  and  _395
REMARK  146  A    between atoms: _394  and  _397
REMARK  147  A    between atoms: _399  and  _401
REMARK  148  A    between atoms: _401  and  _402
REMARK  149  A    between atoms: _401  and  _404
REMARK  150  A    between atoms: _407  and  _409
REMARK  151  A    between atoms: _409  and  _410
REMARK  152  A    between atoms: _409  and  _412
REMARK  153  A    between atoms: _412  and  _413
REMARK  154  A    between atoms: _423  and  _425
REMARK  155  A    between atoms: _425  and  _426
REMARK  156  A    between atoms: _425  and  _428
REMARK  157  A    between atoms: _428  and  _429
REMARK  158  A    between atoms: _434  and  _436
REMARK  159  A    between atoms: _436  and  _437
REMARK  160  A    between atoms: _436  and  _439
REMARK  161  A    between atoms: _439  and  _440
REMARK  162  A    between atoms: _440  and  _441
REMARK  163  A    between atoms: _441  and  _442
REMARK                            x       y       z     vdW  Elec       q    Type
REMARK                         _______ _______ _______ _____ _____    ______ ____
ROOT
ATOM      1  O   HOH     1      -3.063   4.841   9.535  0.00  0.00    +0.000 OA
ENDROOT
TORSDOF 0
REMARK  Name = ../refined-set-2016/3oku/3oku_pocket.pdb
REMARK  163 active torsions:
REMARK  status: ('A' for Active; 'I' for Inactive)
REMARK    1  A    between atoms: _1  and  _3
REMARK    2  A    between atoms: _3  and  _4
REMARK    3  A    between atoms: _3  and  _6
REMARK    4  A    between atoms: _6  and  _7
REMARK    5  A    between atoms: _17  and  _19
REMARK    6  A    between atoms: _19  and  _20
REMARK    7  A    between atoms: _19  and  _22
REMARK    8  A    between atoms: _22  and  _23
REMARK    9  A    between atoms: _28  and  _29
REMARK   10  A    between atoms: _31  and  _33
REMARK   11  A    between atoms: _33  and  _34
REMARK   12  A    between atoms: _33  and  _36
REMARK   13  A    between atoms: _36  and  _37
REMARK   14  A    between atoms: _43  and  _45
REMARK   15  A    between atoms: _45  and  _46
REMARK   16  A    between atoms: _45  and  _48
REMARK   17  A    between atoms: _48  and  _49
REMARK   18  A    between atoms: _52  and  _53
REMARK   19  A    between atoms: _58  and  _60
REMARK   20  A    between atoms: _60  and  _61
REMARK   21  A    between atoms: _60  and  _63
REMARK   22  A    between atoms: _63  and  _64
REMARK   23  A    between atoms: _69  and  _71
REMARK   24  A    between atoms: _71  and  _72
REMARK   25  A    between atoms: _71  and  _74
REMARK   26  A    between atoms: _74  and  _75
REMARK   27  A    between atoms: _80  and  _82
REMARK   28  A    between atoms: _82  and  _83
REMARK   29  A    between atoms: _86  and  _88
REMARK   30  A    between atoms: _88  and  _89
REMARK   31  A    between atoms: _88  and  _91
REMARK   32  A    between atoms: _91  and  _92
REMARK   33  A    between atoms: _97  and  _99
REMARK   34  A    between atoms: _99  and  _100
REMARK   35  A    between atoms: _99  and  _102
REMARK   36  A    between atoms: _102  and  _103
REMARK   37  A    between atoms: _106  and  _108
REMARK   38  A    between atoms: _108  and  _109
REMARK   39  A    between atoms: _108  and  _111
REMARK   40  A    between atoms: _111  and  _112
REMARK   41  A    between atoms: _112  and  _113
REMARK   42  A    between atoms: _118  and  _120
REMARK   43  A    between atoms: _120  and  _121
REMARK   44  A    between atoms: _120  and  _123
REMARK   45  A    between atoms: _123  and  _124
REMARK   46  A    between atoms: _130  and  _132
REMARK   47  A    between atoms: _143  and  _146
REMARK   48  A    between atoms: _146  and  _147
REMARK   49  A    between atoms: _155  and  _156
REMARK   50  A    between atoms: _164  and  _166
REMARK   51  A    between atoms: _166  and  _167
REMARK   52  A    between atoms: _166  and  _169
REMARK   53  A    between atoms: _169  and  _170
REMARK   54  A    between atoms: _170  and  _171
REMARK   55  A    between atoms: _174  and  _176
REMARK   56  A    between atoms: _176  and  _177
REMARK   57  A    between atoms: _176  and  _179
REMARK   58  A    between atoms: _179  and  _180
REMARK   59  A    between atoms: _185  and  _187
REMARK   60  A    between atoms: _187  and  _188
REMARK   61  A    between atoms: _187  and  _190
REMARK   62  A    between atoms: _190  and  _191
REMARK   63  A    between atoms: _191  and  _192
REMARK   64  A    between atoms: _195  and  _197
REMARK   65  A    between atoms: _197  and  _198
REMARK   66  A    between atoms: _197  and  _200
REMARK   67  A    between atoms: _200  and  _201
REMARK   68  A    between atoms: _204  and  _206
REMARK   69  A    between atoms: _206  and  _207
REMARK   70  A    between atoms: _206  and  _209
REMARK   71  A    between atoms: _209  and  _210
REMARK   72  A    between atoms: _211  and  ZN_451
REMARK   73  A    between atoms: _215  and  _217
REMARK   74  A    between atoms: _217  and  _218
REMARK   75  A    between atoms: _217  and  _220
REMARK   76  A    between atoms: _220  and  _221
REMARK   77  A    between atoms: _224  and  _226
REMARK   78  A    between atoms: _226  and  _227
REMARK   79  A    between atoms: _226  and  _229
REMARK   80  A    between atoms: _232  and  _234
REMARK   81  A    between atoms: _234  and  _235
REMARK   82  A    between atoms: _234  and  _237
REMARK   83  A    between atoms: _237  and  _238
REMARK   84  A    between atoms: _243  and  _245
REMARK   85  A    between atoms: _245  and  _246
REMARK   86  A    between atoms: _245  and  _248
REMARK   87  A    between atoms: _248  and  _249
REMARK   88  A    between atoms: _255  and  _257
REMARK   89  A    between atoms: _257  and  _258
REMARK   90  A    between atoms: _260  and  _262
REMARK   91  A    between atoms: _262  and  _263
REMARK   92  A    between atoms: _262  and  _265
REMARK   93  A    between atoms: _265  and  _266
REMARK   94  A    between atoms: _266  and  _267
REMARK   95  A    between atoms: _267  and  _268
REMARK   96  A    between atoms: _268  and  _269
REMARK   97  A    between atoms: _273  and  _275
REMARK   98  A    between atoms: _275  and  _276
REMARK   99  A    between atoms: _275  and  _278
REMARK  100  A    between atoms: _281  and  _283
REMARK  101  A    between atoms: _283  and  _284
REMARK  102  A    between atoms: _283  and  _286
REMARK  103  A    between atoms: _286  and  _287
REMARK  104  A    between atoms: _287  and  _288
REMARK  105  A    between atoms: _293  and  _295
REMARK  106  A    between atoms: _295  and  _296
REMARK  107  A    between atoms: _295  and  _298
REMARK  108  A    between atoms: _298  and  _299
REMARK  109  A    between atoms: _302  and  _304
REMARK  110  A    between atoms: _304  and  _305
REMARK  111  A    between atoms: _308  and  _310
REMARK  112  A    between atoms: _310  and  _311
REMARK  113  A    between atoms: _310  and  _313
REMARK  114  A    between atoms: _316  and  _318
REMARK  115  A    between atoms: _318  and  _319
REMARK  116  A    between atoms: _318  and  _321
REMARK  117  A    between atoms: _321  and  _322
REMARK  118  A    between atoms: _325  and  _327
REMARK  119  A    between atoms: _327  and  _328
REMARK  120  A    between atoms: _327  and  _330
REMARK  121  A    between atoms: _330  and  _331
REMARK  122  A    between atoms: _333  and  _335
REMARK  123  A    between atoms: _335  and  _336
REMARK  124  A    between atoms: _335  and  _338
REMARK  125  A    between atoms: _338  and  _339
REMARK  126  A    between atoms: _342  and  _344
REMARK  127  A    between atoms: _344  and  _345
REMARK  128  A    between atoms: _344  and  _347
REMARK  129  A    between atoms: _347  and  _348
REMARK  130  A    between atoms: _351  and  _353
REMARK  131  A    between atoms: _353  and  _354
REMARK  132  A    between atoms: _353  and  _356
REMARK  133  A    between atoms: _356  and  _357
REMARK  134  A    between atoms: _361  and  _362
REMARK  135  A    between atoms: _368  and  _369
REMARK  136  A    between atoms: _374  and  _376
REMARK  137  A    between atoms: _376  and  _377
REMARK  138  A    between atoms: _376  and  _379
REMARK  139  A    between atoms: _379  and  _380
REMARK  140  A    between atoms: _383  and  _385
REMARK  141  A    between atoms: _385  and  _386
REMARK  142  A    between atoms: _385  and  _388
REMARK  143  A    between atoms: _388  and  _389
REMARK  144  A    between atoms: _392  and  _394
REMARK  145  A    between atoms: _394  and  _395
REMARK  146  A    between atoms: _394  and  _397
REMARK  147  A    between atoms: _399  and  _401
REMARK  148  A    between atoms: _401  and  _402
REMARK  149  A    between atoms: _401  and  _404
REMARK  150  A    between atoms: _407  and  _409
REMARK  151  A    between atoms: _409  and  _410
REMARK  152  A    between atoms: _409  and  _412
REMARK  153  A    between atoms: _412  and  _413
REMARK  154  A    between atoms: _423  and  _425
REMARK  155  A    between atoms: _425  and  _426
REMARK  156  A    between atoms: _425  and  _428
REMARK  157  A    between atoms: _428  and  _429
REMARK  158  A    between atoms: _434  and  _436
REMARK  159  A    between atoms: _436  and  _437
REMARK  160  A    between atoms: _436  and  _439
REMARK  161  A    between atoms: _439  and  _440
REMARK  162  A    between atoms: _440  and  _441
REMARK  163  A    between atoms: _441  and  _442
REMARK                            x       y       z     vdW  Elec       q    Type
REMARK                         _______ _______ _______ _____ _____    ______ ____
ROOT
ATOM      1  O   HOH     1      -3.287   6.827   5.835  0.00  0.00    +0.000 OA
ENDROOT
TORSDOF 0
REMARK  Name = ../refined-set-2016/3oku/3oku_pocket.pdb
REMARK  163 active torsions:
REMARK  status: ('A' for Active; 'I' for Inactive)
REMARK    1  A    between atoms: _1  and  _3
REMARK    2  A    between atoms: _3  and  _4
REMARK    3  A    between atoms: _3  and  _6
REMARK    4  A    between atoms: _6  and  _7
REMARK    5  A    between atoms: _17  and  _19
REMARK    6  A    between atoms: _19  and  _20
REMARK    7  A    between atoms: _19  and  _22
REMARK    8  A    between atoms: _22  and  _23
REMARK    9  A    between atoms: _28  and  _29
REMARK   10  A    between atoms: _31  and  _33
REMARK   11  A    between atoms: _33  and  _34
REMARK   12  A    between atoms: _33  and  _36
REMARK   13  A    between atoms: _36  and  _37
REMARK   14  A    between atoms: _43  and  _45
REMARK   15  A    between atoms: _45  and  _46
REMARK   16  A    between atoms: _45  and  _48
REMARK   17  A    between atoms: _48  and  _49
REMARK   18  A    between atoms: _52  and  _53
REMARK   19  A    between atoms: _58  and  _60
REMARK   20  A    between atoms: _60  and  _61
REMARK   21  A    between atoms: _60  and  _63
REMARK   22  A    between atoms: _63  and  _64
REMARK   23  A    between atoms: _69  and  _71
REMARK   24  A    between atoms: _71  and  _72
REMARK   25  A    between atoms: _71  and  _74
REMARK   26  A    between atoms: _74  and  _75
REMARK   27  A    between atoms: _80  and  _82
REMARK   28  A    between atoms: _82  and  _83
REMARK   29  A    between atoms: _86  and  _88
REMARK   30  A    between atoms: _88  and  _89
REMARK   31  A    between atoms: _88  and  _91
REMARK   32  A    between atoms: _91  and  _92
REMARK   33  A    between atoms: _97  and  _99
REMARK   34  A    between atoms: _99  and  _100
REMARK   35  A    between atoms: _99  and  _102
REMARK   36  A    between atoms: _102  and  _103
REMARK   37  A    between atoms: _106  and  _108
REMARK   38  A    between atoms: _108  and  _109
REMARK   39  A    between atoms: _108  and  _111
REMARK   40  A    between atoms: _111  and  _112
REMARK   41  A    between atoms: _112  and  _113
REMARK   42  A    between atoms: _118  and  _120
REMARK   43  A    between atoms: _120  and  _121
REMARK   44  A    between atoms: _120  and  _123
REMARK   45  A    between atoms: _123  and  _124
REMARK   46  A    between atoms: _130  and  _132
REMARK   47  A    between atoms: _143  and  _146
REMARK   48  A    between atoms: _146  and  _147
REMARK   49  A    between atoms: _155  and  _156
REMARK   50  A    between atoms: _164  and  _166
REMARK   51  A    between atoms: _166  and  _167
REMARK   52  A    between atoms: _166  and  _169
REMARK   53  A    between atoms: _169  and  _170
REMARK   54  A    between atoms: _170  and  _171
REMARK   55  A    between atoms: _174  and  _176
REMARK   56  A    between atoms: _176  and  _177
REMARK   57  A    between atoms: _176  and  _179
REMARK   58  A    between atoms: _179  and  _180
REMARK   59  A    between atoms: _185  and  _187
REMARK   60  A    between atoms: _187  and  _188
REMARK   61  A    between atoms: _187  and  _190
REMARK   62  A    between atoms: _190  and  _191
REMARK   63  A    between atoms: _191  and  _192
REMARK   64  A    between atoms: _195  and  _197
REMARK   65  A    between atoms: _197  and  _198
REMARK   66  A    between atoms: _197  and  _200
REMARK   67  A    between atoms: _200  and  _201
REMARK   68  A    between atoms: _204  and  _206
REMARK   69  A    between atoms: _206  and  _207
REMARK   70  A    between atoms: _206  and  _209
REMARK   71  A    between atoms: _209  and  _210
REMARK   72  A    between atoms: _211  and  ZN_451
REMARK   73  A    between atoms: _215  and  _217
REMARK   74  A    between atoms: _217  and  _218
REMARK   75  A    between atoms: _217  and  _220
REMARK   76  A    between atoms: _220  and  _221
REMARK   77  A    between atoms: _224  and  _226
REMARK   78  A    between atoms: _226  and  _227
REMARK   79  A    between atoms: _226  and  _229
REMARK   80  A    between atoms: _232  and  _234
REMARK   81  A    between atoms: _234  and  _235
REMARK   82  A    between atoms: _234  and  _237
REMARK   83  A    between atoms: _237  and  _238
REMARK   84  A    between atoms: _243  and  _245
REMARK   85  A    between atoms: _245  and  _246
REMARK   86  A    between atoms: _245  and  _248
REMARK   87  A    between atoms: _248  and  _249
REMARK   88  A    between atoms: _255  and  _257
REMARK   89  A    between atoms: _257  and  _258
REMARK   90  A    between atoms: _260  and  _262
REMARK   91  A    between atoms: _262  and  _263
REMARK   92  A    between atoms: _262  and  _265
REMARK   93  A    between atoms: _265  and  _266
REMARK   94  A    between atoms: _266  and  _267
REMARK   95  A    between atoms: _267  and  _268
REMARK   96  A    between atoms: _268  and  _269
REMARK   97  A    between atoms: _273  and  _275
REMARK   98  A    between atoms: _275  and  _276
REMARK   99  A    between atoms: _275  and  _278
REMARK  100  A    between atoms: _281  and  _283
REMARK  101  A    between atoms: _283  and  _284
REMARK  102  A    between atoms: _283  and  _286
REMARK  103  A    between atoms: _286  and  _287
REMARK  104  A    between atoms: _287  and  _288
REMARK  105  A    between atoms: _293  and  _295
REMARK  106  A    between atoms: _295  and  _296
REMARK  107  A    between atoms: _295  and  _298
REMARK  108  A    between atoms: _298  and  _299
REMARK  109  A    between atoms: _302  and  _304
REMARK  110  A    between atoms: _304  and  _305
REMARK  111  A    between atoms: _308  and  _310
REMARK  112  A    between atoms: _310  and  _311
REMARK  113  A    between atoms: _310  and  _313
REMARK  114  A    between atoms: _316  and  _318
REMARK  115  A    between atoms: _318  and  _319
REMARK  116  A    between atoms: _318  and  _321
REMARK  117  A    between atoms: _321  and  _322
REMARK  118  A    between atoms: _325  and  _327
REMARK  119  A    between atoms: _327  and  _328
REMARK  120  A    between atoms: _327  and  _330
REMARK  121  A    between atoms: _330  and  _331
REMARK  122  A    between atoms: _333  and  _335
REMARK  123  A    between atoms: _335  and  _336
REMARK  124  A    between atoms: _335  and  _338
REMARK  125  A    between atoms: _338  and  _339
REMARK  126  A    between atoms: _342  and  _344
REMARK  127  A    between atoms: _344  and  _345
REMARK  128  A    between atoms: _344  and  _347
REMARK  129  A    between atoms: _347  and  _348
REMARK  130  A    between atoms: _351  and  _353
REMARK  131  A    between atoms: _353  and  _354
REMARK  132  A    between atoms: _353  and  _356
REMARK  133  A    between atoms: _356  and  _357
REMARK  134  A    between atoms: _361  and  _362
REMARK  135  A    between atoms: _368  and  _369
REMARK  136  A    between atoms: _374  and  _376
REMARK  137  A    between atoms: _376  and  _377
REMARK  138  A    between atoms: _376  and  _379
REMARK  139  A    between atoms: _379  and  _380
REMARK  140  A    between atoms: _383  and  _385
REMARK  141  A    between atoms: _385  and  _386
REMARK  142  A    between atoms: _385  and  _388
REMARK  143  A    between atoms: _388  and  _389
REMARK  144  A    between atoms: _392  and  _394
REMARK  145  A    between atoms: _394  and  _395
REMARK  146  A    between atoms: _394  and  _397
REMARK  147  A    between atoms: _399  and  _401
REMARK  148  A    between atoms: _401  and  _402
REMARK  149  A    between atoms: _401  and  _404
REMARK  150  A    between atoms: _407  and  _409
REMARK  151  A    between atoms: _409  and  _410
REMARK  152  A    between atoms: _409  and  _412
REMARK  153  A    between atoms: _412  and  _413
REMARK  154  A    between atoms: _423  and  _425
REMARK  155  A    between atoms: _425  and  _426
REMARK  156  A    between atoms: _425  and  _428
REMARK  157  A    between atoms: _428  and  _429
REMARK  158  A    between atoms: _434  and  _436
REMARK  159  A    between atoms: _436  and  _437
REMARK  160  A    between atoms: _436  and  _439
REMARK  161  A    between atoms: _439  and  _440
REMARK  162  A    between atoms: _440  and  _441
REMARK  163  A    between atoms: _441  and  _442
REMARK                            x       y       z     vdW  Elec       q    Type
REMARK                         _______ _______ _______ _____ _____    ______ ____
ROOT
ATOM      1  O   HOH     1       5.965   9.057  18.767  0.00  0.00    +0.000 OA
ENDROOT
TORSDOF 0
REMARK  Name = ../refined-set-2016/3oku/3oku_pocket.pdb
REMARK  163 active torsions:
REMARK  status: ('A' for Active; 'I' for Inactive)
REMARK    1  A    between atoms: _1  and  _3
REMARK    2  A    between atoms: _3  and  _4
REMARK    3  A    between atoms: _3  and  _6
REMARK    4  A    between atoms: _6  and  _7
REMARK    5  A    between atoms: _17  and  _19
REMARK    6  A    between atoms: _19  and  _20
REMARK    7  A    between atoms: _19  and  _22
REMARK    8  A    between atoms: _22  and  _23
REMARK    9  A    between atoms: _28  and  _29
REMARK   10  A    between atoms: _31  and  _33
REMARK   11  A    between atoms: _33  and  _34
REMARK   12  A    between atoms: _33  and  _36
REMARK   13  A    between atoms: _36  and  _37
REMARK   14  A    between atoms: _43  and  _45
REMARK   15  A    between atoms: _45  and  _46
REMARK   16  A    between atoms: _45  and  _48
REMARK   17  A    between atoms: _48  and  _49
REMARK   18  A    between atoms: _52  and  _53
REMARK   19  A    between atoms: _58  and  _60
REMARK   20  A    between atoms: _60  and  _61
REMARK   21  A    between atoms: _60  and  _63
REMARK   22  A    between atoms: _63  and  _64
REMARK   23  A    between atoms: _69  and  _71
REMARK   24  A    between atoms: _71  and  _72
REMARK   25  A    between atoms: _71  and  _74
REMARK   26  A    between atoms: _74  and  _75
REMARK   27  A    between atoms: _80  and  _82
REMARK   28  A    between atoms: _82  and  _83
REMARK   29  A    between atoms: _86  and  _88
REMARK   30  A    between atoms: _88  and  _89
REMARK   31  A    between atoms: _88  and  _91
REMARK   32  A    between atoms: _91  and  _92
REMARK   33  A    between atoms: _97  and  _99
REMARK   34  A    between atoms: _99  and  _100
REMARK   35  A    between atoms: _99  and  _102
REMARK   36  A    between atoms: _102  and  _103
REMARK   37  A    between atoms: _106  and  _108
REMARK   38  A    between atoms: _108  and  _109
REMARK   39  A    between atoms: _108  and  _111
REMARK   40  A    between atoms: _111  and  _112
REMARK   41  A    between atoms: _112  and  _113
REMARK   42  A    between atoms: _118  and  _120
REMARK   43  A    between atoms: _120  and  _121
REMARK   44  A    between atoms: _120  and  _123
REMARK   45  A    between atoms: _123  and  _124
REMARK   46  A    between atoms: _130  and  _132
REMARK   47  A    between atoms: _143  and  _146
REMARK   48  A    between atoms: _146  and  _147
REMARK   49  A    between atoms: _155  and  _156
REMARK   50  A    between atoms: _164  and  _166
REMARK   51  A    between atoms: _166  and  _167
REMARK   52  A    between atoms: _166  and  _169
REMARK   53  A    between atoms: _169  and  _170
REMARK   54  A    between atoms: _170  and  _171
REMARK   55  A    between atoms: _174  and  _176
REMARK   56  A    between atoms: _176  and  _177
REMARK   57  A    between atoms: _176  and  _179
REMARK   58  A    between atoms: _179  and  _180
REMARK   59  A    between atoms: _185  and  _187
REMARK   60  A    between atoms: _187  and  _188
REMARK   61  A    between atoms: _187  and  _190
REMARK   62  A    between atoms: _190  and  _191
REMARK   63  A    between atoms: _191  and  _192
REMARK   64  A    between atoms: _195  and  _197
REMARK   65  A    between atoms: _197  and  _198
REMARK   66  A    between atoms: _197  and  _200
REMARK   67  A    between atoms: _200  and  _201
REMARK   68  A    between atoms: _204  and  _206
REMARK   69  A    between atoms: _206  and  _207
REMARK   70  A    between atoms: _206  and  _209
REMARK   71  A    between atoms: _209  and  _210
REMARK   72  A    between atoms: _211  and  ZN_451
REMARK   73  A    between atoms: _215  and  _217
REMARK   74  A    between atoms: _217  and  _218
REMARK   75  A    between atoms: _217  and  _220
REMARK   76  A    between atoms: _220  and  _221
REMARK   77  A    between atoms: _224  and  _226
REMARK   78  A    between atoms: _226  and  _227
REMARK   79  A    between atoms: _226  and  _229
REMARK   80  A    between atoms: _232  and  _234
REMARK   81  A    between atoms: _234  and  _235
REMARK   82  A    between atoms: _234  and  _237
REMARK   83  A    between atoms: _237  and  _238
REMARK   84  A    between atoms: _243  and  _245
REMARK   85  A    between atoms: _245  and  _246
REMARK   86  A    between atoms: _245  and  _248
REMARK   87  A    between atoms: _248  and  _249
REMARK   88  A    between atoms: _255  and  _257
REMARK   89  A    between atoms: _257  and  _258
REMARK   90  A    between atoms: _260  and  _262
REMARK   91  A    between atoms: _262  and  _263
REMARK   92  A    between atoms: _262  and  _265
REMARK   93  A    between atoms: _265  and  _266
REMARK   94  A    between atoms: _266  and  _267
REMARK   95  A    between atoms: _267  and  _268
REMARK   96  A    between atoms: _268  and  _269
REMARK   97  A    between atoms: _273  and  _275
REMARK   98  A    between atoms: _275  and  _276
REMARK   99  A    between atoms: _275  and  _278
REMARK  100  A    between atoms: _281  and  _283
REMARK  101  A    between atoms: _283  and  _284
REMARK  102  A    between atoms: _283  and  _286
REMARK  103  A    between atoms: _286  and  _287
REMARK  104  A    between atoms: _287  and  _288
REMARK  105  A    between atoms: _293  and  _295
REMARK  106  A    between atoms: _295  and  _296
REMARK  107  A    between atoms: _295  and  _298
REMARK  108  A    between atoms: _298  and  _299
REMARK  109  A    between atoms: _302  and  _304
REMARK  110  A    between atoms: _304  and  _305
REMARK  111  A    between atoms: _308  and  _310
REMARK  112  A    between atoms: _310  and  _311
REMARK  113  A    between atoms: _310  and  _313
REMARK  114  A    between atoms: _316  and  _318
REMARK  115  A    between atoms: _318  and  _319
REMARK  116  A    between atoms: _318  and  _321
REMARK  117  A    between atoms: _321  and  _322
REMARK  118  A    between atoms: _325  and  _327
REMARK  119  A    between atoms: _327  and  _328
REMARK  120  A    between atoms: _327  and  _330
REMARK  121  A    between atoms: _330  and  _331
REMARK  122  A    between atoms: _333  and  _335
REMARK  123  A    between atoms: _335  and  _336
REMARK  124  A    between atoms: _335  and  _338
REMARK  125  A    between atoms: _338  and  _339
REMARK  126  A    between atoms: _342  and  _344
REMARK  127  A    between atoms: _344  and  _345
REMARK  128  A    between atoms: _344  and  _347
REMARK  129  A    between atoms: _347  and  _348
REMARK  130  A    between atoms: _351  and  _353
REMARK  131  A    between atoms: _353  and  _354
REMARK  132  A    between atoms: _353  and  _356
REMARK  133  A    between atoms: _356  and  _357
REMARK  134  A    between atoms: _361  and  _362
REMARK  135  A    between atoms: _368  and  _369
REMARK  136  A    between atoms: _374  and  _376
REMARK  137  A    between atoms: _376  and  _377
REMARK  138  A    between atoms: _376  and  _379
REMARK  139  A    between atoms: _379  and  _380
REMARK  140  A    between atoms: _383  and  _385
REMARK  141  A    between atoms: _385  and  _386
REMARK  142  A    between atoms: _385  and  _388
REMARK  143  A    between atoms: _388  and  _389
REMARK  144  A    between atoms: _392  and  _394
REMARK  145  A    between atoms: _394  and  _395
REMARK  146  A    between atoms: _394  and  _397
REMARK  147  A    between atoms: _399  and  _401
REMARK  148  A    between atoms: _401  and  _402
REMARK  149  A    between atoms: _401  and  _404
REMARK  150  A    between atoms: _407  and  _409
REMARK  151  A    between atoms: _409  and  _410
REMARK  152  A    between atoms: _409  and  _412
REMARK  153  A    between atoms: _412  and  _413
REMARK  154  A    between atoms: _423  and  _425
REMARK  155  A    between atoms: _425  and  _426
REMARK  156  A    between atoms: _425  and  _428
REMARK  157  A    between atoms: _428  and  _429
REMARK  158  A    between atoms: _434  and  _436
REMARK  159  A    between atoms: _436  and  _437
REMARK  160  A    between atoms: _436  and  _439
REMARK  161  A    between atoms: _439  and  _440
REMARK  162  A    between atoms: _440  and  _441
REMARK  163  A    between atoms: _441  and  _442
REMARK                            x       y       z     vdW  Elec       q    Type
REMARK                         _______ _______ _______ _____ _____    ______ ____
ROOT
ATOM      1  O   HOH     1       1.781   4.379   9.684  0.00  0.00    +0.000 OA
ENDROOT
TORSDOF 0
REMARK  Name = ../refined-set-2016/3oku/3oku_pocket.pdb
REMARK  163 active torsions:
REMARK  status: ('A' for Active; 'I' for Inactive)
REMARK    1  A    between atoms: _1  and  _3
REMARK    2  A    between atoms: _3  and  _4
REMARK    3  A    between atoms: _3  and  _6
REMARK    4  A    between atoms: _6  and  _7
REMARK    5  A    between atoms: _17  and  _19
REMARK    6  A    between atoms: _19  and  _20
REMARK    7  A    between atoms: _19  and  _22
REMARK    8  A    between atoms: _22  and  _23
REMARK    9  A    between atoms: _28  and  _29
REMARK   10  A    between atoms: _31  and  _33
REMARK   11  A    between atoms: _33  and  _34
REMARK   12  A    between atoms: _33  and  _36
REMARK   13  A    between atoms: _36  and  _37
REMARK   14  A    between atoms: _43  and  _45
REMARK   15  A    between atoms: _45  and  _46
REMARK   16  A    between atoms: _45  and  _48
REMARK   17  A    between atoms: _48  and  _49
REMARK   18  A    between atoms: _52  and  _53
REMARK   19  A    between atoms: _58  and  _60
REMARK   20  A    between atoms: _60  and  _61
REMARK   21  A    between atoms: _60  and  _63
REMARK   22  A    between atoms: _63  and  _64
REMARK   23  A    between atoms: _69  and  _71
REMARK   24  A    between atoms: _71  and  _72
REMARK   25  A    between atoms: _71  and  _74
REMARK   26  A    between atoms: _74  and  _75
REMARK   27  A    between atoms: _80  and  _82
REMARK   28  A    between atoms: _82  and  _83
REMARK   29  A    between atoms: _86  and  _88
REMARK   30  A    between atoms: _88  and  _89
REMARK   31  A    between atoms: _88  and  _91
REMARK   32  A    between atoms: _91  and  _92
REMARK   33  A    between atoms: _97  and  _99
REMARK   34  A    between atoms: _99  and  _100
REMARK   35  A    between atoms: _99  and  _102
REMARK   36  A    between atoms: _102  and  _103
REMARK   37  A    between atoms: _106  and  _108
REMARK   38  A    between atoms: _108  and  _109
REMARK   39  A    between atoms: _108  and  _111
REMARK   40  A    between atoms: _111  and  _112
REMARK   41  A    between atoms: _112  and  _113
REMARK   42  A    between atoms: _118  and  _120
REMARK   43  A    between atoms: _120  and  _121
REMARK   44  A    between atoms: _120  and  _123
REMARK   45  A    between atoms: _123  and  _124
REMARK   46  A    between atoms: _130  and  _132
REMARK   47  A    between atoms: _143  and  _146
REMARK   48  A    between atoms: _146  and  _147
REMARK   49  A    between atoms: _155  and  _156
REMARK   50  A    between atoms: _164  and  _166
REMARK   51  A    between atoms: _166  and  _167
REMARK   52  A    between atoms: _166  and  _169
REMARK   53  A    between atoms: _169  and  _170
REMARK   54  A    between atoms: _170  and  _171
REMARK   55  A    between atoms: _174  and  _176
REMARK   56  A    between atoms: _176  and  _177
REMARK   57  A    between atoms: _176  and  _179
REMARK   58  A    between atoms: _179  and  _180
REMARK   59  A    between atoms: _185  and  _187
REMARK   60  A    between atoms: _187  and  _188
REMARK   61  A    between atoms: _187  and  _190
REMARK   62  A    between atoms: _190  and  _191
REMARK   63  A    between atoms: _191  and  _192
REMARK   64  A    between atoms: _195  and  _197
REMARK   65  A    between atoms: _197  and  _198
REMARK   66  A    between atoms: _197  and  _200
REMARK   67  A    between atoms: _200  and  _201
REMARK   68  A    between atoms: _204  and  _206
REMARK   69  A    between atoms: _206  and  _207
REMARK   70  A    between atoms: _206  and  _209
REMARK   71  A    between atoms: _209  and  _210
REMARK   72  A    between atoms: _211  and  ZN_451
REMARK   73  A    between atoms: _215  and  _217
REMARK   74  A    between atoms: _217  and  _218
REMARK   75  A    between atoms: _217  and  _220
REMARK   76  A    between atoms: _220  and  _221
REMARK   77  A    between atoms: _224  and  _226
REMARK   78  A    between atoms: _226  and  _227
REMARK   79  A    between atoms: _226  and  _229
REMARK   80  A    between atoms: _232  and  _234
REMARK   81  A    between atoms: _234  and  _235
REMARK   82  A    between atoms: _234  and  _237
REMARK   83  A    between atoms: _237  and  _238
REMARK   84  A    between atoms: _243  and  _245
REMARK   85  A    between atoms: _245  and  _246
REMARK   86  A    between atoms: _245  and  _248
REMARK   87  A    between atoms: _248  and  _249
REMARK   88  A    between atoms: _255  and  _257
REMARK   89  A    between atoms: _257  and  _258
REMARK   90  A    between atoms: _260  and  _262
REMARK   91  A    between atoms: _262  and  _263
REMARK   92  A    between atoms: _262  and  _265
REMARK   93  A    between atoms: _265  and  _266
REMARK   94  A    between atoms: _266  and  _267
REMARK   95  A    between atoms: _267  and  _268
REMARK   96  A    between atoms: _268  and  _269
REMARK   97  A    between atoms: _273  and  _275
REMARK   98  A    between atoms: _275  and  _276
REMARK   99  A    between atoms: _275  and  _278
REMARK  100  A    between atoms: _281  and  _283
REMARK  101  A    between atoms: _283  and  _284
REMARK  102  A    between atoms: _283  and  _286
REMARK  103  A    between atoms: _286  and  _287
REMARK  104  A    between atoms: _287  and  _288
REMARK  105  A    between atoms: _293  and  _295
REMARK  106  A    between atoms: _295  and  _296
REMARK  107  A    between atoms: _295  and  _298
REMARK  108  A    between atoms: _298  and  _299
REMARK  109  A    between atoms: _302  and  _304
REMARK  110  A    between atoms: _304  and  _305
REMARK  111  A    between atoms: _308  and  _310
REMARK  112  A    between atoms: _310  and  _311
REMARK  113  A    between atoms: _310  and  _313
REMARK  114  A    between atoms: _316  and  _318
REMARK  115  A    between atoms: _318  and  _319
REMARK  116  A    between atoms: _318  and  _321
REMARK  117  A    between atoms: _321  and  _322
REMARK  118  A    between atoms: _325  and  _327
REMARK  119  A    between atoms: _327  and  _328
REMARK  120  A    between atoms: _327  and  _330
REMARK  121  A    between atoms: _330  and  _331
REMARK  122  A    between atoms: _333  and  _335
REMARK  123  A    between atoms: _335  and  _336
REMARK  124  A    between atoms: _335  and  _338
REMARK  125  A    between atoms: _338  and  _339
REMARK  126  A    between atoms: _342  and  _344
REMARK  127  A    between atoms: _344  and  _345
REMARK  128  A    between atoms: _344  and  _347
REMARK  129  A    between atoms: _347  and  _348
REMARK  130  A    between atoms: _351  and  _353
REMARK  131  A    between atoms: _353  and  _354
REMARK  132  A    between atoms: _353  and  _356
REMARK  133  A    between atoms: _356  and  _357
REMARK  134  A    between atoms: _361  and  _362
REMARK  135  A    between atoms: _368  and  _369
REMARK  136  A    between atoms: _374  and  _376
REMARK  137  A    between atoms: _376  and  _377
REMARK  138  A    between atoms: _376  and  _379
REMARK  139  A    between atoms: _379  and  _380
REMARK  140  A    between atoms: _383  and  _385
REMARK  141  A    between atoms: _385  and  _386
REMARK  142  A    between atoms: _385  and  _388
REMARK  143  A    between atoms: _388  and  _389
REMARK  144  A    between atoms: _392  and  _394
REMARK  145  A    between atoms: _394  and  _395
REMARK  146  A    between atoms: _394  and  _397
REMARK  147  A    between atoms: _399  and  _401
REMARK  148  A    between atoms: _401  and  _402
REMARK  149  A    between atoms: _401  and  _404
REMARK  150  A    between atoms: _407  and  _409
REMARK  151  A    between atoms: _409  and  _410
REMARK  152  A    between atoms: _409  and  _412
REMARK  153  A    between atoms: _412  and  _413
REMARK  154  A    between atoms: _423  and  _425
REMARK  155  A    between atoms: _425  and  _426
REMARK  156  A    between atoms: _425  and  _428
REMARK  157  A    between atoms: _428  and  _429
REMARK  158  A    between atoms: _434  and  _436
REMARK  159  A    between atoms: _436  and  _437
REMARK  160  A    between atoms: _436  and  _439
REMARK  161  A    between atoms: _439  and  _440
REMARK  162  A    between atoms: _440  and  _441
REMARK  163  A    between atoms: _441  and  _442
REMARK                            x       y       z     vdW  Elec       q    Type
REMARK                         _______ _______ _______ _____ _____    ______ ____
ROOT
ATOM      1  O   HOH     1       4.792   6.357  13.013  0.00  0.00    +0.000 OA
ENDROOT
TORSDOF 0
REMARK  Name = ../refined-set-2016/3oku/3oku_pocket.pdb
REMARK  163 active torsions:
REMARK  status: ('A' for Active; 'I' for Inactive)
REMARK    1  A    between atoms: _1  and  _3
REMARK    2  A    between atoms: _3  and  _4
REMARK    3  A    between atoms: _3  and  _6
REMARK    4  A    between atoms: _6  and  _7
REMARK    5  A    between atoms: _17  and  _19
REMARK    6  A    between atoms: _19  and  _20
REMARK    7  A    between atoms: _19  and  _22
REMARK    8  A    between atoms: _22  and  _23
REMARK    9  A    between atoms: _28  and  _29
REMARK   10  A    between atoms: _31  and  _33
REMARK   11  A    between atoms: _33  and  _34
REMARK   12  A    between atoms: _33  and  _36
REMARK   13  A    between atoms: _36  and  _37
REMARK   14  A    between atoms: _43  and  _45
REMARK   15  A    between atoms: _45  and  _46
REMARK   16  A    between atoms: _45  and  _48
REMARK   17  A    between atoms: _48  and  _49
REMARK   18  A    between atoms: _52  and  _53
REMARK   19  A    between atoms: _58  and  _60
REMARK   20  A    between atoms: _60  and  _61
REMARK   21  A    between atoms: _60  and  _63
REMARK   22  A    between atoms: _63  and  _64
REMARK   23  A    between atoms: _69  and  _71
REMARK   24  A    between atoms: _71  and  _72
REMARK   25  A    between atoms: _71  and  _74
REMARK   26  A    between atoms: _74  and  _75
REMARK   27  A    between atoms: _80  and  _82
REMARK   28  A    between atoms: _82  and  _83
REMARK   29  A    between atoms: _86  and  _88
REMARK   30  A    between atoms: _88  and  _89
REMARK   31  A    between atoms: _88  and  _91
REMARK   32  A    between atoms: _91  and  _92
REMARK   33  A    between atoms: _97  and  _99
REMARK   34  A    between atoms: _99  and  _100
REMARK   35  A    between atoms: _99  and  _102
REMARK   36  A    between atoms: _102  and  _103
REMARK   37  A    between atoms: _106  and  _108
REMARK   38  A    between atoms: _108  and  _109
REMARK   39  A    between atoms: _108  and  _111
REMARK   40  A    between atoms: _111  and  _112
REMARK   41  A    between atoms: _112  and  _113
REMARK   42  A    between atoms: _118  and  _120
REMARK   43  A    between atoms: _120  and  _121
REMARK   44  A    between atoms: _120  and  _123
REMARK   45  A    between atoms: _123  and  _124
REMARK   46  A    between atoms: _130  and  _132
REMARK   47  A    between atoms: _143  and  _146
REMARK   48  A    between atoms: _146  and  _147
REMARK   49  A    between atoms: _155  and  _156
REMARK   50  A    between atoms: _164  and  _166
REMARK   51  A    between atoms: _166  and  _167
REMARK   52  A    between atoms: _166  and  _169
REMARK   53  A    between atoms: _169  and  _170
REMARK   54  A    between atoms: _170  and  _171
REMARK   55  A    between atoms: _174  and  _176
REMARK   56  A    between atoms: _176  and  _177
REMARK   57  A    between atoms: _176  and  _179
REMARK   58  A    between atoms: _179  and  _180
REMARK   59  A    between atoms: _185  and  _187
REMARK   60  A    between atoms: _187  and  _188
REMARK   61  A    between atoms: _187  and  _190
REMARK   62  A    between atoms: _190  and  _191
REMARK   63  A    between atoms: _191  and  _192
REMARK   64  A    between atoms: _195  and  _197
REMARK   65  A    between atoms: _197  and  _198
REMARK   66  A    between atoms: _197  and  _200
REMARK   67  A    between atoms: _200  and  _201
REMARK   68  A    between atoms: _204  and  _206
REMARK   69  A    between atoms: _206  and  _207
REMARK   70  A    between atoms: _206  and  _209
REMARK   71  A    between atoms: _209  and  _210
REMARK   72  A    between atoms: _211  and  ZN_451
REMARK   73  A    between atoms: _215  and  _217
REMARK   74  A    between atoms: _217  and  _218
REMARK   75  A    between atoms: _217  and  _220
REMARK   76  A    between atoms: _220  and  _221
REMARK   77  A    between atoms: _224  and  _226
REMARK   78  A    between atoms: _226  and  _227
REMARK   79  A    between atoms: _226  and  _229
REMARK   80  A    between atoms: _232  and  _234
REMARK   81  A    between atoms: _234  and  _235
REMARK   82  A    between atoms: _234  and  _237
REMARK   83  A    between atoms: _237  and  _238
REMARK   84  A    between atoms: _243  and  _245
REMARK   85  A    between atoms: _245  and  _246
REMARK   86  A    between atoms: _245  and  _248
REMARK   87  A    between atoms: _248  and  _249
REMARK   88  A    between atoms: _255  and  _257
REMARK   89  A    between atoms: _257  and  _258
REMARK   90  A    between atoms: _260  and  _262
REMARK   91  A    between atoms: _262  and  _263
REMARK   92  A    between atoms: _262  and  _265
REMARK   93  A    between atoms: _265  and  _266
REMARK   94  A    between atoms: _266  and  _267
REMARK   95  A    between atoms: _267  and  _268
REMARK   96  A    between atoms: _268  and  _269
REMARK   97  A    between atoms: _273  and  _275
REMARK   98  A    between atoms: _275  and  _276
REMARK   99  A    between atoms: _275  and  _278
REMARK  100  A    between atoms: _281  and  _283
REMARK  101  A    between atoms: _283  and  _284
REMARK  102  A    between atoms: _283  and  _286
REMARK  103  A    between atoms: _286  and  _287
REMARK  104  A    between atoms: _287  and  _288
REMARK  105  A    between atoms: _293  and  _295
REMARK  106  A    between atoms: _295  and  _296
REMARK  107  A    between atoms: _295  and  _298
REMARK  108  A    between atoms: _298  and  _299
REMARK  109  A    between atoms: _302  and  _304
REMARK  110  A    between atoms: _304  and  _305
REMARK  111  A    between atoms: _308  and  _310
REMARK  112  A    between atoms: _310  and  _311
REMARK  113  A    between atoms: _310  and  _313
REMARK  114  A    between atoms: _316  and  _318
REMARK  115  A    between atoms: _318  and  _319
REMARK  116  A    between atoms: _318  and  _321
REMARK  117  A    between atoms: _321  and  _322
REMARK  118  A    between atoms: _325  and  _327
REMARK  119  A    between atoms: _327  and  _328
REMARK  120  A    between atoms: _327  and  _330
REMARK  121  A    between atoms: _330  and  _331
REMARK  122  A    between atoms: _333  and  _335
REMARK  123  A    between atoms: _335  and  _336
REMARK  124  A    between atoms: _335  and  _338
REMARK  125  A    between atoms: _338  and  _339
REMARK  126  A    between atoms: _342  and  _344
REMARK  127  A    between atoms: _344  and  _345
REMARK  128  A    between atoms: _344  and  _347
REMARK  129  A    between atoms: _347  and  _348
REMARK  130  A    between atoms: _351  and  _353
REMARK  131  A    between atoms: _353  and  _354
REMARK  132  A    between atoms: _353  and  _356
REMARK  133  A    between atoms: _356  and  _357
REMARK  134  A    between atoms: _361  and  _362
REMARK  135  A    between atoms: _368  and  _369
REMARK  136  A    between atoms: _374  and  _376
REMARK  137  A    between atoms: _376  and  _377
REMARK  138  A    between atoms: _376  and  _379
REMARK  139  A    between atoms: _379  and  _380
REMARK  140  A    between atoms: _383  and  _385
REMARK  141  A    between atoms: _385  and  _386
REMARK  142  A    between atoms: _385  and  _388
REMARK  143  A    between atoms: _388  and  _389
REMARK  144  A    between atoms: _392  and  _394
REMARK  145  A    between atoms: _394  and  _395
REMARK  146  A    between atoms: _394  and  _397
REMARK  147  A    between atoms: _399  and  _401
REMARK  148  A    between atoms: _401  and  _402
REMARK  149  A    between atoms: _401  and  _404
REMARK  150  A    between atoms: _407  and  _409
REMARK  151  A    between atoms: _409  and  _410
REMARK  152  A    between atoms: _409  and  _412
REMARK  153  A    between atoms: _412  and  _413
REMARK  154  A    between atoms: _423  and  _425
REMARK  155  A    between atoms: _425  and  _426
REMARK  156  A    between atoms: _425  and  _428
REMARK  157  A    between atoms: _428  and  _429
REMARK  158  A    between atoms: _434  and  _436
REMARK  159  A    between atoms: _436  and  _437
REMARK  160  A    between atoms: _436  and  _439
REMARK  161  A    between atoms: _439  and  _440
REMARK  162  A    between atoms: _440  and  _441
REMARK  163  A    between atoms: _441  and  _442
REMARK                            x       y       z     vdW  Elec       q    Type
REMARK                         _______ _______ _______ _____ _____    ______ ____
ROOT
ATOM      1  O   HOH     1      -7.313  10.217   7.721  0.00  0.00    +0.000 OA
ENDROOT
TORSDOF 0
REMARK  Name = ../refined-set-2016/3oku/3oku_pocket.pdb
REMARK  163 active torsions:
REMARK  status: ('A' for Active; 'I' for Inactive)
REMARK    1  A    between atoms: _1  and  _3
REMARK    2  A    between atoms: _3  and  _4
REMARK    3  A    between atoms: _3  and  _6
REMARK    4  A    between atoms: _6  and  _7
REMARK    5  A    between atoms: _17  and  _19
REMARK    6  A    between atoms: _19  and  _20
REMARK    7  A    between atoms: _19  and  _22
REMARK    8  A    between atoms: _22  and  _23
REMARK    9  A    between atoms: _28  and  _29
REMARK   10  A    between atoms: _31  and  _33
REMARK   11  A    between atoms: _33  and  _34
REMARK   12  A    between atoms: _33  and  _36
REMARK   13  A    between atoms: _36  and  _37
REMARK   14  A    between atoms: _43  and  _45
REMARK   15  A    between atoms: _45  and  _46
REMARK   16  A    between atoms: _45  and  _48
REMARK   17  A    between atoms: _48  and  _49
REMARK   18  A    between atoms: _52  and  _53
REMARK   19  A    between atoms: _58  and  _60
REMARK   20  A    between atoms: _60  and  _61
REMARK   21  A    between atoms: _60  and  _63
REMARK   22  A    between atoms: _63  and  _64
REMARK   23  A    between atoms: _69  and  _71
REMARK   24  A    between atoms: _71  and  _72
REMARK   25  A    between atoms: _71  and  _74
REMARK   26  A    between atoms: _74  and  _75
REMARK   27  A    between atoms: _80  and  _82
REMARK   28  A    between atoms: _82  and  _83
REMARK   29  A    between atoms: _86  and  _88
REMARK   30  A    between atoms: _88  and  _89
REMARK   31  A    between atoms: _88  and  _91
REMARK   32  A    between atoms: _91  and  _92
REMARK   33  A    between atoms: _97  and  _99
REMARK   34  A    between atoms: _99  and  _100
REMARK   35  A    between atoms: _99  and  _102
REMARK   36  A    between atoms: _102  and  _103
REMARK   37  A    between atoms: _106  and  _108
REMARK   38  A    between atoms: _108  and  _109
REMARK   39  A    between atoms: _108  and  _111
REMARK   40  A    between atoms: _111  and  _112
REMARK   41  A    between atoms: _112  and  _113
REMARK   42  A    between atoms: _118  and  _120
REMARK   43  A    between atoms: _120  and  _121
REMARK   44  A    between atoms: _120  and  _123
REMARK   45  A    between atoms: _123  and  _124
REMARK   46  A    between atoms: _130  and  _132
REMARK   47  A    between atoms: _143  and  _146
REMARK   48  A    between atoms: _146  and  _147
REMARK   49  A    between atoms: _155  and  _156
REMARK   50  A    between atoms: _164  and  _166
REMARK   51  A    between atoms: _166  and  _167
REMARK   52  A    between atoms: _166  and  _169
REMARK   53  A    between atoms: _169  and  _170
REMARK   54  A    between atoms: _170  and  _171
REMARK   55  A    between atoms: _174  and  _176
REMARK   56  A    between atoms: _176  and  _177
REMARK   57  A    between atoms: _176  and  _179
REMARK   58  A    between atoms: _179  and  _180
REMARK   59  A    between atoms: _185  and  _187
REMARK   60  A    between atoms: _187  and  _188
REMARK   61  A    between atoms: _187  and  _190
REMARK   62  A    between atoms: _190  and  _191
REMARK   63  A    between atoms: _191  and  _192
REMARK   64  A    between atoms: _195  and  _197
REMARK   65  A    between atoms: _197  and  _198
REMARK   66  A    between atoms: _197  and  _200
REMARK   67  A    between atoms: _200  and  _201
REMARK   68  A    between atoms: _204  and  _206
REMARK   69  A    between atoms: _206  and  _207
REMARK   70  A    between atoms: _206  and  _209
REMARK   71  A    between atoms: _209  and  _210
REMARK   72  A    between atoms: _211  and  ZN_451
REMARK   73  A    between atoms: _215  and  _217
REMARK   74  A    between atoms: _217  and  _218
REMARK   75  A    between atoms: _217  and  _220
REMARK   76  A    between atoms: _220  and  _221
REMARK   77  A    between atoms: _224  and  _226
REMARK   78  A    between atoms: _226  and  _227
REMARK   79  A    between atoms: _226  and  _229
REMARK   80  A    between atoms: _232  and  _234
REMARK   81  A    between atoms: _234  and  _235
REMARK   82  A    between atoms: _234  and  _237
REMARK   83  A    between atoms: _237  and  _238
REMARK   84  A    between atoms: _243  and  _245
REMARK   85  A    between atoms: _245  and  _246
REMARK   86  A    between atoms: _245  and  _248
REMARK   87  A    between atoms: _248  and  _249
REMARK   88  A    between atoms: _255  and  _257
REMARK   89  A    between atoms: _257  and  _258
REMARK   90  A    between atoms: _260  and  _262
REMARK   91  A    between atoms: _262  and  _263
REMARK   92  A    between atoms: _262  and  _265
REMARK   93  A    between atoms: _265  and  _266
REMARK   94  A    between atoms: _266  and  _267
REMARK   95  A    between atoms: _267  and  _268
REMARK   96  A    between atoms: _268  and  _269
REMARK   97  A    between atoms: _273  and  _275
REMARK   98  A    between atoms: _275  and  _276
REMARK   99  A    between atoms: _275  and  _278
REMARK  100  A    between atoms: _281  and  _283
REMARK  101  A    between atoms: _283  and  _284
REMARK  102  A    between atoms: _283  and  _286
REMARK  103  A    between atoms: _286  and  _287
REMARK  104  A    between atoms: _287  and  _288
REMARK  105  A    between atoms: _293  and  _295
REMARK  106  A    between atoms: _295  and  _296
REMARK  107  A    between atoms: _295  and  _298
REMARK  108  A    between atoms: _298  and  _299
REMARK  109  A    between atoms: _302  and  _304
REMARK  110  A    between atoms: _304  and  _305
REMARK  111  A    between atoms: _308  and  _310
REMARK  112  A    between atoms: _310  and  _311
REMARK  113  A    between atoms: _310  and  _313
REMARK  114  A    between atoms: _316  and  _318
REMARK  115  A    between atoms: _318  and  _319
REMARK  116  A    between atoms: _318  and  _321
REMARK  117  A    between atoms: _321  and  _322
REMARK  118  A    between atoms: _325  and  _327
REMARK  119  A    between atoms: _327  and  _328
REMARK  120  A    between atoms: _327  and  _330
REMARK  121  A    between atoms: _330  and  _331
REMARK  122  A    between atoms: _333  and  _335
REMARK  123  A    between atoms: _335  and  _336
REMARK  124  A    between atoms: _335  and  _338
REMARK  125  A    between atoms: _338  and  _339
REMARK  126  A    between atoms: _342  and  _344
REMARK  127  A    between atoms: _344  and  _345
REMARK  128  A    between atoms: _344  and  _347
REMARK  129  A    between atoms: _347  and  _348
REMARK  130  A    between atoms: _351  and  _353
REMARK  131  A    between atoms: _353  and  _354
REMARK  132  A    between atoms: _353  and  _356
REMARK  133  A    between atoms: _356  and  _357
REMARK  134  A    between atoms: _361  and  _362
REMARK  135  A    between atoms: _368  and  _369
REMARK  136  A    between atoms: _374  and  _376
REMARK  137  A    between atoms: _376  and  _377
REMARK  138  A    between atoms: _376  and  _379
REMARK  139  A    between atoms: _379  and  _380
REMARK  140  A    between atoms: _383  and  _385
REMARK  141  A    between atoms: _385  and  _386
REMARK  142  A    between atoms: _385  and  _388
REMARK  143  A    between atoms: _388  and  _389
REMARK  144  A    between atoms: _392  and  _394
REMARK  145  A    between atoms: _394  and  _395
REMARK  146  A    between atoms: _394  and  _397
REMARK  147  A    between atoms: _399  and  _401
REMARK  148  A    between atoms: _401  and  _402
REMARK  149  A    between atoms: _401  and  _404
REMARK  150  A    between atoms: _407  and  _409
REMARK  151  A    between atoms: _409  and  _410
REMARK  152  A    between atoms: _409  and  _412
REMARK  153  A    between atoms: _412  and  _413
REMARK  154  A    between atoms: _423  and  _425
REMARK  155  A    between atoms: _425  and  _426
REMARK  156  A    between atoms: _425  and  _428
REMARK  157  A    between atoms: _428  and  _429
REMARK  158  A    between atoms: _434  and  _436
REMARK  159  A    between atoms: _436  and  _437
REMARK  160  A    between atoms: _436  and  _439
REMARK  161  A    between atoms: _439  and  _440
REMARK  162  A    between atoms: _440  and  _441
REMARK  163  A    between atoms: _441  and  _442
REMARK                            x       y       z     vdW  Elec       q    Type
REMARK                         _______ _______ _______ _____ _____    ______ ____
ROOT
ATOM      1  O   HOH     1      -6.413   7.000  11.144  0.00  0.00    +0.000 OA
ENDROOT
TORSDOF 0
