REMARK  Name = ../refined-set-2016/3zdv/3zdv_pocket.pdb
REMARK  111 active torsions:
REMARK  status: ('A' for Active; 'I' for Inactive)
REMARK    1  A    between atoms: _1  and  _3
REMARK    2  A    between atoms: _3  and  _4
REMARK    3  A    between atoms: _7  and  _9
REMARK    4  A    between atoms: _9  and  _10
REMARK    5  A    between atoms: _9  and  _12
REMARK    6  A    between atoms: _10  and  _11
REMARK    7  A    between atoms: _10  and  _18
REMARK    8  A    between atoms: _11  and  CA_276
REMARK    9  A    between atoms: _12  and  _13
REMARK   10  A    between atoms: _18  and  _20
REMARK   11  A    between atoms: _20  and  _21
REMARK   12  A    between atoms: _20  and  _23
REMARK   13  A    between atoms: _23  and  _24
REMARK   14  A    between atoms: _26  and  _28
REMARK   15  A    between atoms: _28  and  _29
REMARK   16  A    between atoms: _28  and  _31
REMARK   17  A    between atoms: _31  and  _32
REMARK   18  A    between atoms: _34  and  _36
REMARK   19  A    between atoms: _36  and  _37
REMARK   20  A    between atoms: _39  and  _41
REMARK   21  A    between atoms: _41  and  _42
REMARK   22  A    between atoms: _41  and  _44
REMARK   23  A    between atoms: _44  and  _45
REMARK   24  A    between atoms: _48  and  _50
REMARK   25  A    between atoms: _50  and  _51
REMARK   26  A    between atoms: _50  and  _53
REMARK   27  A    between atoms: _53  and  _54
REMARK   28  A    between atoms: _54  and  _55
REMARK   29  A    between atoms: _60  and  _62
REMARK   30  A    between atoms: _62  and  _63
REMARK   31  A    between atoms: _62  and  _65
REMARK   32  A    between atoms: _65  and  _66
REMARK   33  A    between atoms: _66  and  _67
REMARK   34  A    between atoms: _72  and  _74
REMARK   35  A    between atoms: _74  and  _75
REMARK   36  A    between atoms: _74  and  _77
REMARK   37  A    between atoms: _77  and  _78
REMARK   38  A    between atoms: _80  and  _82
REMARK   39  A    between atoms: _82  and  _83
REMARK   40  A    between atoms: _82  and  _85
REMARK   41  A    between atoms: _85  and  _86
REMARK   42  A    between atoms: _89  and  _91
REMARK   43  A    between atoms: _91  and  _92
REMARK   44  A    between atoms: _91  and  _94
REMARK   45  A    between atoms: _97  and  _99
REMARK   46  A    between atoms: _99  and  _100
REMARK   47  A    between atoms: _99  and  _102
REMARK   48  A    between atoms: _102  and  _103
REMARK   49  A    between atoms: _108  and  _110
REMARK   50  A    between atoms: _110  and  _111
REMARK   51  A    between atoms: _110  and  _113
REMARK   52  A    between atoms: _113  and  _114
REMARK   53  A    between atoms: _114  and  _115
REMARK   54  A    between atoms: _115  and  _116
REMARK   55  A    between atoms: _125  and  _127
REMARK   56  A    between atoms: _127  and  _128
REMARK   57  A    between atoms: _127  and  _130
REMARK   58  A    between atoms: _130  and  _131
REMARK   59  A    between atoms: _133  and  _135
REMARK   60  A    between atoms: _135  and  _136
REMARK   61  A    between atoms: _135  and  _138
REMARK   62  A    between atoms: _138  and  _139
REMARK   63  A    between atoms: _141  and  _143
REMARK   64  A    between atoms: _143  and  _144
REMARK   65  A    between atoms: _143  and  _146
REMARK   66  A    between atoms: _146  and  _147
REMARK   67  A    between atoms: _147  and  _148
REMARK   68  A    between atoms: _151  and  _153
REMARK   69  A    between atoms: _153  and  _154
REMARK   70  A    between atoms: _153  and  _156
REMARK   71  A    between atoms: _156  and  _157
REMARK   72  A    between atoms: _160  and  _162
REMARK   73  A    between atoms: _162  and  _163
REMARK   74  A    between atoms: _165  and  _167
REMARK   75  A    between atoms: _167  and  _168
REMARK   76  A    between atoms: _167  and  _170
REMARK   77  A    between atoms: _170  and  _171
REMARK   78  A    between atoms: _174  and  _176
REMARK   79  A    between atoms: _185  and  _188
REMARK   80  A    between atoms: _188  and  _189
REMARK   81  A    between atoms: _196  and  _197
REMARK   82  A    between atoms: _203  and  _205
REMARK   83  A    between atoms: _205  and  _206
REMARK   84  A    between atoms: _205  and  _208
REMARK   85  A    between atoms: _208  and  _209
REMARK   86  A    between atoms: _214  and  _215
REMARK   87  A    between atoms: _217  and  _219
REMARK   88  A    between atoms: _219  and  _220
REMARK   89  A    between atoms: _219  and  _222
REMARK   90  A    between atoms: _222  and  _223
REMARK   91  A    between atoms: _223  and  _224
REMARK   92  A    between atoms: _223  and  _225
REMARK   93  A    between atoms: _224  and  CA_276
REMARK   94  A    between atoms: _228  and  _230
REMARK   95  A    between atoms: _230  and  _231
REMARK   96  A    between atoms: _230  and  _233
REMARK   97  A    between atoms: _233  and  _234
REMARK   98  A    between atoms: _237  and  _239
REMARK   99  A    between atoms: _239  and  _240
REMARK  100  A    between atoms: _243  and  _245
REMARK  101  A    between atoms: _245  and  _246
REMARK  102  A    between atoms: _245  and  _248
REMARK  103  A    between atoms: _248  and  _249
REMARK  104  A    between atoms: _249  and  _250
REMARK  105  A    between atoms: _250  and  _251
REMARK  106  A    between atoms: _260  and  _262
REMARK  107  A    between atoms: _262  and  _263
REMARK  108  A    between atoms: _262  and  _265
REMARK  109  A    between atoms: _265  and  _266
REMARK  110  A    between atoms: _269  and  _271
REMARK  111  A    between atoms: _271  and  _272
REMARK                            x       y       z     vdW  Elec       q    Type
REMARK                         _______ _______ _______ _____ _____    ______ ____
ROOT
ATOM      1  N   UNK A   0      -3.074  11.425  17.958  0.00  0.00    +0.000 N 
ATOM      2  H   UNK A   0      -3.357  12.415  18.103  0.00  0.00    +0.000 HD
ATOM      3  C   TYR A   9      -3.453  10.810  16.847  0.00  0.00    +0.000 C 
ATOM      4  O   TYR A   9      -3.221   9.631  16.644  0.00  0.00    +0.000 OA
ENDROOT
BRANCH   1   5
ATOM      5  C   UNK A   0      -2.272  10.765  18.989  0.00  0.00    +0.000 C 
BRANCH   5   6
ATOM      6  C   UNK A   0      -3.032  10.613  20.307  0.00  0.00    +0.000 C 
ATOM      7  O   UNK A   0      -2.459  10.278  21.320  0.00  0.00    +0.000 OA
ATOM      8  N   ASP A  11      -4.332  10.905  20.281  0.00  0.00    +0.000 N 
ATOM      9  H   ASP A  11      -4.831  10.994  19.373  0.00  0.00    +0.000 HD
BRANCH   8  10
ATOM     10  CA  ASP A  11      -5.045  11.098  21.529  0.00  0.00    +0.000 C 
BRANCH  10  11
ATOM     11  C   ASP A  11      -5.098   9.810  22.327  0.00  0.00    +0.000 C 
ATOM     12  O   ASP A  11      -4.863   9.827  23.540  0.00  0.00    +0.000 OA
ATOM     13  N   ALA A  12      -5.372   8.716  21.640  0.00  0.00    +0.000 N 
ATOM     14  H   ALA A  12      -5.897   8.804  20.746  0.00  0.00    +0.000 HD
BRANCH  13  15
ATOM     15  CA  ALA A  12      -4.956   7.357  22.099  0.00  0.00    +0.000 C 
ATOM     16  CB  ALA A  12      -6.092   6.459  22.461  0.00  0.00    +0.000 C 
BRANCH  15  17
ATOM     17  C   ALA A  12      -4.169   6.779  20.931  0.00  0.00    +0.000 C 
ATOM     18  O   ALA A  12      -4.597   6.856  19.758  0.00  0.00    +0.000 OA
ENDBRANCH  15  17
ENDBRANCH  13  15
ENDBRANCH  10  11
BRANCH  10  19
ATOM     19  CB  ASP A  11      -6.423  11.692  21.228  0.00  0.00    +0.000 C 
BRANCH  19  20
ATOM     20  CG  ASP A  11      -6.310  13.067  20.567  0.00  0.00    +0.000 C 
ATOM     21  OD2 ASP A  11      -5.393  13.848  20.900  0.00  0.00    +0.000 OA
ATOM     22  OD1 ASP A  11      -7.154  13.355  19.696  0.00  0.00    +0.000 OA
ENDBRANCH  19  20
ENDBRANCH  10  19
ENDBRANCH   8  10
ENDBRANCH   5   6
BRANCH   5  23
ATOM     23  C   UNK A   0      -0.965  11.491  19.234  0.00  0.00    +0.000 C 
BRANCH  23  24
ATOM     24  C   UNK A   0      -1.167  12.833  19.938  0.00  0.00    +0.000 C 
BRANCH  24  25
ATOM     25  N   UNK A   0      -0.070  13.543  20.238  0.00  0.00    +0.000 NA
ATOM     26  H   UNK A   0      -0.154  14.425  20.782  0.00  0.00    +0.000 HD
ATOM     27  H   UNK A   0       0.865  13.211  19.927  0.00  0.00    +0.000 HD
ENDBRANCH  24  25
BRANCH  24  28
ATOM     28  O   UNK A   0      -2.286  13.168  20.273  0.00  0.00    +0.000 OA
BRANCH  28  29
ATOM     29 CA   UNK A   0      -3.363  14.953  21.327  0.00  0.00    +0.000 Ca
BRANCH  29  30
ATOM     30  O   UNK A   0      -3.375  13.608  23.250  0.00  0.00    +0.000 OA
BRANCH  30  31
ATOM     31  C   UNK A   0      -3.145  13.170  24.381  0.00  0.00    +0.000 C 
BRANCH  31  32
ATOM     32  N   SER A   1      -3.894  13.463  25.433  0.00  0.00    +0.000 NA
ATOM     33  H   SER A   1      -3.591  13.144  26.375  0.00  0.00    +0.000 HD
BRANCH  32  34
ATOM     34  CA  SER A   1      -5.122  14.214  25.305  0.00  0.00    +0.000 C 
BRANCH  34  35
ATOM     35  C   SER A   1      -5.590  14.726  26.636  0.00  0.00    +0.000 C 
ATOM     36  O   SER A   1      -5.376  14.088  27.666  0.00  0.00    +0.000 OA
ATOM     37  N   GLU A   2      -6.300  15.850  26.626  0.00  0.00    +0.000 N 
ATOM     38  H   GLU A   2      -6.359  16.414  25.755  0.00  0.00    +0.000 HD
BRANCH  37  39
ATOM     39  CA  GLU A   2      -6.999  16.300  27.831  0.00  0.00    +0.000 C 
BRANCH  39  40
ATOM     40  C   GLU A   2      -8.154  15.409  28.236  0.00  0.00    +0.000 C 
ATOM     41  O   GLU A   2      -8.562  15.408  29.423  0.00  0.00    +0.000 OA
ATOM     42  N   ASP A   3      -8.697  14.681  27.285  0.00  0.00    +0.000 N 
ATOM     43  H   ASP A   3      -8.342  14.757  26.310  0.00  0.00    +0.000 HD
BRANCH  42  44
ATOM     44  CA  ASP A   3      -9.782  13.777  27.583  0.00  0.00    +0.000 C 
BRANCH  44  45
ATOM     45  C   ASP A   3      -9.367  12.360  27.970  0.00  0.00    +0.000 C 
ATOM     46  N   GLY A   4     -10.123  11.725  28.870  0.00  0.00    +0.000 N 
ATOM     47  H   GLY A   4     -10.923  12.235  29.296  0.00  0.00    +0.000 HD
ATOM     48  O   ASP A   3      -8.349  11.870  27.519  0.00  0.00    +0.000 OA
BRANCH  46  49
ATOM     49  CA  GLY A   4      -9.878  10.357  29.279  0.00  0.00    +0.000 C 
BRANCH  49  50
ATOM     50  C   GLY A   4     -10.194   9.447  28.114  0.00  0.00    +0.000 C 
ATOM     51  N   THR A   5      -9.207   8.626  27.779  0.00  0.00    +0.000 N 
ATOM     52  H   THR A   5      -8.319   8.637  28.320  0.00  0.00    +0.000 HD
ATOM     53  O   GLY A   4     -11.253   9.511  27.513  0.00  0.00    +0.000 OA
BRANCH  51  54
ATOM     54  CA  THR A   5      -9.363   7.696  26.641  0.00  0.00    +0.000 C 
BRANCH  54  55
ATOM     55  C   THR A   5      -9.874   6.378  27.127  0.00  0.00    +0.000 C 
ATOM     56  O   THR A   5      -9.366   5.895  28.163  0.00  0.00    +0.000 OA
ENDBRANCH  54  55
BRANCH  54  57
ATOM     57  CB  THR A   5      -8.008   7.491  26.008  0.00  0.00    +0.000 C 
BRANCH  57  58
ATOM     58  CG  THR A   5      -7.347   8.783  25.571  0.00  0.00    +0.000 C 
BRANCH  58  59
ATOM     59  CD  THR A   5      -8.104   9.484  24.462  0.00  0.00    +0.000 C 
ATOM     60  NE2 THR A   5      -8.392  10.764  24.670  0.00  0.00    +0.000 N 
ATOM     61 HE21 THR A   5      -8.138  11.214  25.572  0.00  0.00    +0.000 HD
ATOM     62 HE22 THR A   5      -8.872  11.316  23.931  0.00  0.00    +0.000 HD
ATOM     63  OE1 THR A   5      -8.380   8.914  23.427  0.00  0.00    +0.000 OA
ENDBRANCH  58  59
ENDBRANCH  57  58
ENDBRANCH  54  57
ENDBRANCH  51  54
ENDBRANCH  49  50
BRANCH  49  64
ATOM     64  CB  GLY A   4     -10.740   9.991  30.511  0.00  0.00    +0.000 C 
ATOM     65  CG2 GLY A   4     -10.577   8.564  30.851  0.00  0.00    +0.000 C 
BRANCH  64  66
ATOM     66  OG1 GLY A   4     -10.347  10.819  31.589  0.00  0.00    +0.000 OA
ATOM     67  HG1 GLY A   4     -10.889  10.599  32.388  0.00  0.00    +0.000 HD
ENDBRANCH  64  66
ENDBRANCH  49  64
ENDBRANCH  46  49
ENDBRANCH  44  45
ENDBRANCH  42  44
ENDBRANCH  39  40
BRANCH  39  68
ATOM     68  CB  GLU A   2      -7.514  17.734  27.611  0.00  0.00    +0.000 C 
BRANCH  68  69
ATOM     69  O   GLU A   2      -6.461  18.652  27.443  0.00  0.00    +0.000 OA
ATOM     70  H   GLU A   2      -6.834  19.559  27.305  0.00  0.00    +0.000 HD
ENDBRANCH  68  69
ENDBRANCH  39  68
ENDBRANCH  37  39
ENDBRANCH  34  35
BRANCH  34  71
ATOM     71  CB  SER A   1      -6.219  13.310  24.722  0.00  0.00    +0.000 C 
BRANCH  71  72
ATOM     72  OG  SER A   1      -7.461  14.017  24.649  0.00  0.00    +0.000 OA
ATOM     73  H   SER A   1      -8.156  13.422  24.272  0.00  0.00    +0.000 HD
ENDBRANCH  71  72
ENDBRANCH  34  71
ENDBRANCH  32  34
ENDBRANCH  31  32
BRANCH  31  74
ATOM     74  C   UNK A   0      -1.977  12.223  24.631  0.00  0.00    +0.000 C 
BRANCH  74  77
ATOM     75  C   UNK A   0      -1.895  10.021  25.715  0.00  0.00    +0.000 C 
ATOM     76  O   UNK A   0      -0.858  10.236  26.331  0.00  0.00    +0.000 OA
ATOM     77  N   UNK A   0      -2.491  10.892  24.873  0.00  0.00    +0.000 N 
ATOM     78  H   UNK A   0      -3.356  10.594  24.378  0.00  0.00    +0.000 HD
BRANCH  75  79
ATOM     79  C   UNK A   0      -2.607   8.680  25.875  0.00  0.00    +0.000 C 
ATOM     80  C   UNK A   0      -3.528   8.701  27.090  0.00  0.00    +0.000 C 
BRANCH  79  81
ATOM     81  N   UNK A   0      -1.688   7.536  25.948  0.00  0.00    +0.000 NA
ATOM     82  H   UNK A   0      -1.011   7.477  26.735  0.00  0.00    +0.000 HD
ENDBRANCH  79  81
ENDBRANCH  75  79
ENDBRANCH  74  77
BRANCH  74  83
ATOM     83  C   UNK A   0      -1.049  12.258  23.424  0.00  0.00    +0.000 C 
BRANCH  83  84
ATOM     84  C   UNK A   0       0.239  11.540  23.641  0.00  0.00    +0.000 C 
ATOM     85  O   UNK A   0       1.160  12.048  24.268  0.00  0.00    +0.000 OA
ATOM     86  N   UNK A   0       0.310  10.302  23.119  0.00  0.00    +0.000 N 
ATOM     87  H   UNK A   0       1.173   9.735  23.241  0.00  0.00    +0.000 HD
ATOM     88  H   UNK A   0      -0.498   9.912  22.594  0.00  0.00    +0.000 HD
ENDBRANCH  83  84
ENDBRANCH  74  83
ENDBRANCH  31  74
ENDBRANCH  30  31
ENDBRANCH  29  30
ENDBRANCH  28  29
ENDBRANCH  24  28
ENDBRANCH  23  24
ENDBRANCH   5  23
ENDBRANCH   1   5
BRANCH   3  89
ATOM     89  CA  TYR A   9      -4.245  11.614  15.846  0.00  0.00    +0.000 C 
BRANCH  89  90
ATOM     90  N   TYR A   9      -4.025  13.072  15.909  0.00  0.00    +0.000 N 
ATOM     91  H   TYR A   9      -4.842  13.695  16.071  0.00  0.00    +0.000 HD
ATOM     92  C   UNK A   8      -2.814  13.622  15.765  0.00  0.00    +0.000 C 
ATOM     93  O   UNK A   8      -1.783  12.964  15.631  0.00  0.00    +0.000 OA
BRANCH  92  94
ATOM     94  C   UNK A   8      -2.730  15.157  15.773  0.00  0.00    +0.000 C 
ATOM     95  C   UNK A   8      -2.051  15.713  17.049  0.00  0.00    +0.000 C 
ATOM     96  C   UNK A   8      -2.833  15.538  18.365  0.00  0.00    +0.000 C 
ATOM     97  O   UNK A   8      -2.258  15.955  19.394  0.00  0.00    +0.000 OA
ATOM     98  O   UNK A   8      -3.949  14.958  18.347  0.00  0.00    +0.000 OA
ATOM     99 CA   UNK A   8      -6.158  15.469  18.948  0.00  0.00    +0.000 Ca
ATOM    100  O   UNK A   6      -5.800  17.488  17.830  0.00  0.00    +0.000 OA
ATOM    101  C   UNK A   6      -5.149  18.550  18.020  0.00  0.00    +0.000 C 
ATOM    102  O   UNK A   6      -4.237  18.663  18.929  0.00  0.00    +0.000 OA
ATOM    103  C   UNK A   6      -5.454  19.788  17.199  0.00  0.00    +0.000 C 
ATOM    104  C   UNK A   6      -6.318  19.508  16.000  0.00  0.00    +0.000 C 
ATOM    105  C   UNK A   6      -5.690  18.520  15.045  0.00  0.00    +0.000 C 
ATOM    106  N   ASN A   7      -6.325  17.370  14.856  0.00  0.00    +0.000 N 
ATOM    107  H   ASN A   7      -7.208  17.201  15.379  0.00  0.00    +0.000 HD
ATOM    108  CA  ASN A   7      -5.839  16.319  13.940  0.00  0.00    +0.000 C 
ATOM    109  C   ASN A   7      -4.407  15.879  14.186  0.00  0.00    +0.000 C 
ATOM    110  O   ASN A   7      -3.672  15.599  13.241  0.00  0.00    +0.000 OA
ATOM    111  O   UNK A   6      -4.634  18.786  14.480  0.00  0.00    +0.000 OA
ATOM    112  N   UNK A   8      -4.001  15.794  15.444  0.00  0.00    +0.000 N 
ATOM    113  H   UNK A   8      -4.593  16.185  16.204  0.00  0.00    +0.000 HD
BRANCH 104 114
ATOM    114  N   UNK A   6      -7.687  19.169  16.400  0.00  0.00    +0.000 N 
ATOM    115  H   UNK A   6      -7.850  18.658  17.291  0.00  0.00    +0.000 HD
ATOM    116  C   THR A   5      -8.726  19.508  15.634  0.00  0.00    +0.000 C 
ATOM    117  O   THR A   5      -8.556  19.979  14.513  0.00  0.00    +0.000 OA
BRANCH 116 118
ATOM    118  CA  THR A   5     -10.128  19.302  16.167  0.00  0.00    +0.000 C 
BRANCH 118 119
ATOM    119  N   THR A   5     -10.213  18.527  17.404  0.00  0.00    +0.000 N 
ATOM    120  H   THR A   5      -9.761  18.899  18.263  0.00  0.00    +0.000 HD
ATOM    121  C   GLY A   4     -10.849  17.364  17.465  0.00  0.00    +0.000 C 
ATOM    122  O   GLY A   4     -11.257  16.772  16.471  0.00  0.00    +0.000 OA
BRANCH 121 123
ATOM    123  CA  GLY A   4     -11.024  16.801  18.847  0.00  0.00    +0.000 C 
BRANCH 123 124
ATOM    124  N   GLY A   4     -10.814  15.359  18.890  0.00  0.00    +0.000 N 
ATOM    125  C   ASP A   3     -11.474  14.542  19.672  0.00  0.00    +0.000 C 
ATOM    126  O   ASP A   3     -12.435  14.892  20.345  0.00  0.00    +0.000 OA
ATOM    127  H   GLY A   4     -10.094  14.953  18.259  0.00  0.00    +0.000 HD
BRANCH 125 128
ATOM    128  CA  ASP A   3     -10.998  13.085  19.750  0.00  0.00    +0.000 C 
BRANCH 128 129
ATOM    129  N   ASP A   3      -9.810  12.794  18.951  0.00  0.00    +0.000 N 
ATOM    130  H   ASP A   3      -8.890  13.164  19.264  0.00  0.00    +0.000 HD
ATOM    131  C   GLU A   2      -9.867  12.069  17.833  0.00  0.00    +0.000 C 
ATOM    132  O   GLU A   2     -10.912  11.607  17.354  0.00  0.00    +0.000 OA
BRANCH 131 133
ATOM    133  CA  GLU A   2      -8.530  11.825  17.156  0.00  0.00    +0.000 C 
BRANCH 133 134
ATOM    134  N   GLU A   2      -8.311  10.397  16.985  0.00  0.00    +0.000 N 
ATOM    135  C   SER A   1      -7.219   9.778  17.433  0.00  0.00    +0.000 C 
ATOM    136  O   SER A   1      -6.305  10.343  18.027  0.00  0.00    +0.000 OA
ATOM    137  H   GLU A   2      -9.036   9.836  16.493  0.00  0.00    +0.000 HD
BRANCH 135 138
ATOM    138  CA  SER A   1      -7.150   8.291  17.091  0.00  0.00    +0.000 C 
BRANCH 138 139
ATOM    139  N   SER A   1      -5.756   7.900  16.920  0.00  0.00    +0.000 NA
ATOM    140  H   SER A   1      -4.999   8.418  17.410  0.00  0.00    +0.000 HD
ENDBRANCH 138 139
BRANCH 138 141
ATOM    141  CB  SER A   1      -7.822   7.485  18.180  0.00  0.00    +0.000 C 
BRANCH 141 142
ATOM    142  OG  SER A   1      -7.263   7.713  19.442  0.00  0.00    +0.000 OA
ATOM    143  H   SER A   1      -6.305   7.465  19.427  0.00  0.00    +0.000 HD
ENDBRANCH 141 142
ENDBRANCH 138 141
ENDBRANCH 135 138
ENDBRANCH 133 134
BRANCH 133 144
ATOM    144  CB  GLU A   2      -8.523  12.536  15.782  0.00  0.00    +0.000 C 
BRANCH 144 145
ATOM    145  CG  GLU A   2      -8.742  14.042  15.882  0.00  0.00    +0.000 C 
BRANCH 145 146
ATOM    146  CD  GLU A   2      -7.791  14.728  16.807  0.00  0.00    +0.000 C 
ATOM    147  OE2 GLU A   2      -8.259  15.480  17.709  0.00  0.00    +0.000 OA
ATOM    148  OE1 GLU A   2      -6.551  14.530  16.723  0.00  0.00    +0.000 OA
ENDBRANCH 145 146
ENDBRANCH 144 145
ENDBRANCH 133 144
ENDBRANCH 131 133
ENDBRANCH 128 129
BRANCH 128 149
ATOM    149  CB  ASP A   3     -10.759  12.685  21.210  0.00  0.00    +0.000 C 
BRANCH 149 150
ATOM    150  CG  ASP A   3      -9.691  13.472  21.883  0.00  0.00    +0.000 C 
ATOM    151  OD2 ASP A   3      -9.180  13.023  22.935  0.00  0.00    +0.000 OA
ATOM    152  OD1 ASP A   3      -9.398  14.607  21.428  0.00  0.00    +0.000 OA
ENDBRANCH 149 150
ENDBRANCH 128 149
ENDBRANCH 125 128
ENDBRANCH 123 124
ENDBRANCH 121 123
ENDBRANCH 118 119
BRANCH 118 153
ATOM    153  CB  THR A   5     -10.790  20.689  16.319  0.00  0.00    +0.000 C 
ATOM    154  CG2 THR A   5     -12.224  20.551  16.714  0.00  0.00    +0.000 C 
BRANCH 153 155
ATOM    155  OG1 THR A   5     -10.073  21.414  17.324  0.00  0.00    +0.000 OA
ATOM    156  HG1 THR A   5      -9.128  21.514  17.046  0.00  0.00    +0.000 HD
ENDBRANCH 153 155
ENDBRANCH 118 153
ENDBRANCH 116 118
ENDBRANCH 104 114
BRANCH 108 157
ATOM    157  CB  ASN A   7      -6.075  16.728  12.483  0.00  0.00    +0.000 C 
BRANCH 157 158
ATOM    158  CG  ASN A   7      -7.521  16.859  12.176  0.00  0.00    +0.000 C 
ATOM    159  OD1 ASN A   7      -8.396  16.255  12.857  0.00  0.00    +0.000 OA
ATOM    160  ND2 ASN A   7      -7.825  17.724  11.233  0.00  0.00    +0.000 N 
ATOM    161 HD21 ASN A   7      -8.821  17.935  11.022  0.00  0.00    +0.000 HD
ATOM    162 HD22 ASN A   7      -7.069  18.197  10.698  0.00  0.00    +0.000 HD
ENDBRANCH 157 158
ENDBRANCH 108 157
ENDBRANCH  92  94
ENDBRANCH  89  90
BRANCH  89 163
ATOM    163  CB  TYR A   9      -4.124  11.107  14.390  0.00  0.00    +0.000 C 
BRANCH 163 164
ATOM    164  CG  TYR A   9      -5.405  11.386  13.637  0.00  0.00    +0.000 A 
ATOM    165  CD2 TYR A   9      -6.438  10.430  13.623  0.00  0.00    +0.000 A 
ATOM    166  CE2 TYR A   9      -7.661  10.668  12.985  0.00  0.00    +0.000 A 
ATOM    167  CZ  TYR A   9      -7.842  11.943  12.417  0.00  0.00    +0.000 A 
ATOM    168  CE1 TYR A   9      -6.838  12.873  12.421  0.00  0.00    +0.000 A 
ATOM    169  CD1 TYR A   9      -5.623  12.584  13.029  0.00  0.00    +0.000 A 
BRANCH 167 170
ATOM    170  OH  TYR A   9      -9.066  12.263  11.837  0.00  0.00    +0.000 OA
ATOM    171  HH  TYR A   9      -9.253  11.634  11.095  0.00  0.00    +0.000 HD
ENDBRANCH 167 170
ENDBRANCH 163 164
ENDBRANCH  89 163
ENDBRANCH   3  89
TORSDOF 69
REMARK  Name = ../refined-set-2016/3zdv/3zdv_pocket.pdb
REMARK  111 active torsions:
REMARK  status: ('A' for Active; 'I' for Inactive)
REMARK    1  A    between atoms: _1  and  _3
REMARK    2  A    between atoms: _3  and  _4
REMARK    3  A    between atoms: _7  and  _9
REMARK    4  A    between atoms: _9  and  _10
REMARK    5  A    between atoms: _9  and  _12
REMARK    6  A    between atoms: _10  and  _11
REMARK    7  A    between atoms: _10  and  _18
REMARK    8  A    between atoms: _11  and  CA_276
REMARK    9  A    between atoms: _12  and  _13
REMARK   10  A    between atoms: _18  and  _20
REMARK   11  A    between atoms: _20  and  _21
REMARK   12  A    between atoms: _20  and  _23
REMARK   13  A    between atoms: _23  and  _24
REMARK   14  A    between atoms: _26  and  _28
REMARK   15  A    between atoms: _28  and  _29
REMARK   16  A    between atoms: _28  and  _31
REMARK   17  A    between atoms: _31  and  _32
REMARK   18  A    between atoms: _34  and  _36
REMARK   19  A    between atoms: _36  and  _37
REMARK   20  A    between atoms: _39  and  _41
REMARK   21  A    between atoms: _41  and  _42
REMARK   22  A    between atoms: _41  and  _44
REMARK   23  A    between atoms: _44  and  _45
REMARK   24  A    between atoms: _48  and  _50
REMARK   25  A    between atoms: _50  and  _51
REMARK   26  A    between atoms: _50  and  _53
REMARK   27  A    between atoms: _53  and  _54
REMARK   28  A    between atoms: _54  and  _55
REMARK   29  A    between atoms: _60  and  _62
REMARK   30  A    between atoms: _62  and  _63
REMARK   31  A    between atoms: _62  and  _65
REMARK   32  A    between atoms: _65  and  _66
REMARK   33  A    between atoms: _66  and  _67
REMARK   34  A    between atoms: _72  and  _74
REMARK   35  A    between atoms: _74  and  _75
REMARK   36  A    between atoms: _74  and  _77
REMARK   37  A    between atoms: _77  and  _78
REMARK   38  A    between atoms: _80  and  _82
REMARK   39  A    between atoms: _82  and  _83
REMARK   40  A    between atoms: _82  and  _85
REMARK   41  A    between atoms: _85  and  _86
REMARK   42  A    between atoms: _89  and  _91
REMARK   43  A    between atoms: _91  and  _92
REMARK   44  A    between atoms: _91  and  _94
REMARK   45  A    between atoms: _97  and  _99
REMARK   46  A    between atoms: _99  and  _100
REMARK   47  A    between atoms: _99  and  _102
REMARK   48  A    between atoms: _102  and  _103
REMARK   49  A    between atoms: _108  and  _110
REMARK   50  A    between atoms: _110  and  _111
REMARK   51  A    between atoms: _110  and  _113
REMARK   52  A    between atoms: _113  and  _114
REMARK   53  A    between atoms: _114  and  _115
REMARK   54  A    between atoms: _115  and  _116
REMARK   55  A    between atoms: _125  and  _127
REMARK   56  A    between atoms: _127  and  _128
REMARK   57  A    between atoms: _127  and  _130
REMARK   58  A    between atoms: _130  and  _131
REMARK   59  A    between atoms: _133  and  _135
REMARK   60  A    between atoms: _135  and  _136
REMARK   61  A    between atoms: _135  and  _138
REMARK   62  A    between atoms: _138  and  _139
REMARK   63  A    between atoms: _141  and  _143
REMARK   64  A    between atoms: _143  and  _144
REMARK   65  A    between atoms: _143  and  _146
REMARK   66  A    between atoms: _146  and  _147
REMARK   67  A    between atoms: _147  and  _148
REMARK   68  A    between atoms: _151  and  _153
REMARK   69  A    between atoms: _153  and  _154
REMARK   70  A    between atoms: _153  and  _156
REMARK   71  A    between atoms: _156  and  _157
REMARK   72  A    between atoms: _160  and  _162
REMARK   73  A    between atoms: _162  and  _163
REMARK   74  A    between atoms: _165  and  _167
REMARK   75  A    between atoms: _167  and  _168
REMARK   76  A    between atoms: _167  and  _170
REMARK   77  A    between atoms: _170  and  _171
REMARK   78  A    between atoms: _174  and  _176
REMARK   79  A    between atoms: _185  and  _188
REMARK   80  A    between atoms: _188  and  _189
REMARK   81  A    between atoms: _196  and  _197
REMARK   82  A    between atoms: _203  and  _205
REMARK   83  A    between atoms: _205  and  _206
REMARK   84  A    between atoms: _205  and  _208
REMARK   85  A    between atoms: _208  and  _209
REMARK   86  A    between atoms: _214  and  _215
REMARK   87  A    between atoms: _217  and  _219
REMARK   88  A    between atoms: _219  and  _220
REMARK   89  A    between atoms: _219  and  _222
REMARK   90  A    between atoms: _222  and  _223
REMARK   91  A    between atoms: _223  and  _224
REMARK   92  A    between atoms: _223  and  _225
REMARK   93  A    between atoms: _224  and  CA_276
REMARK   94  A    between atoms: _228  and  _230
REMARK   95  A    between atoms: _230  and  _231
REMARK   96  A    between atoms: _230  and  _233
REMARK   97  A    between atoms: _233  and  _234
REMARK   98  A    between atoms: _237  and  _239
REMARK   99  A    between atoms: _239  and  _240
REMARK  100  A    between atoms: _243  and  _245
REMARK  101  A    between atoms: _245  and  _246
REMARK  102  A    between atoms: _245  and  _248
REMARK  103  A    between atoms: _248  and  _249
REMARK  104  A    between atoms: _249  and  _250
REMARK  105  A    between atoms: _250  and  _251
REMARK  106  A    between atoms: _260  and  _262
REMARK  107  A    between atoms: _262  and  _263
REMARK  108  A    between atoms: _262  and  _265
REMARK  109  A    between atoms: _265  and  _266
REMARK  110  A    between atoms: _269  and  _271
REMARK  111  A    between atoms: _271  and  _272
REMARK                            x       y       z     vdW  Elec       q    Type
REMARK                         _______ _______ _______ _____ _____    ______ ____
ROOT
ATOM      1  CA  SER A   2      -2.339  11.709  30.042  0.00  0.00    +0.178 C 
ENDROOT
BRANCH   1   4
ATOM      2  C   GLN A   1      -4.267  10.600  31.062  0.00  0.00    +0.238 C 
ATOM      3  O   GLN A   1      -3.685  10.474  32.145  0.00  0.00    -0.274 OA
ATOM      4  N   SER A   2      -3.678  11.157  30.009  0.00  0.00    -0.295 N 
ATOM      5  H   SER A   2      -4.206  11.199  29.114  0.00  0.00    +0.150 HD
BRANCH   2   6
ATOM      6  CA  GLN A   1      -5.674  10.171  30.881  0.00  0.00    +0.145 C 
BRANCH   6   7
ATOM      7  N   GLN A   1      -5.879   8.833  31.396  0.00  0.00    -0.238 NA
ATOM      8  H   GLN A   1      -5.446   8.574  32.305  0.00  0.00    +0.142 HD
ENDBRANCH   6   7
BRANCH   6   9
ATOM      9  CB  GLN A   1      -6.621  11.188  31.594  0.00  0.00    +0.036 C 
BRANCH   9  10
ATOM     10  CG  GLN A   1      -6.648  12.581  31.011  0.00  0.00    +0.087 C 
BRANCH  10  11
ATOM     11  CD  GLN A   1      -5.511  13.432  31.475  0.00  0.00    +0.219 C 
ATOM     12  OE1 GLN A   1      -5.148  13.421  32.638  0.00  0.00    -0.275 OA
ATOM     13  NE2 GLN A   1      -4.970  14.261  30.579  0.00  0.00    -0.329 N 
ATOM     14 HE21 GLN A   1      -4.219  14.920  30.867  0.00  0.00    +0.145 HD
ATOM     15 HE22 GLN A   1      -5.300  14.248  29.593  0.00  0.00    +0.145 HD
ENDBRANCH  10  11
ENDBRANCH   9  10
ENDBRANCH   6   9
ENDBRANCH   2   6
ENDBRANCH   1   4
BRANCH   1  16
ATOM     16  C   SER A   2      -2.143  12.639  28.848  0.00  0.00    +0.243 C 
ATOM     17  N   THR A   3      -1.330  13.684  29.015  0.00  0.00    -0.296 N 
ATOM     18  H   THR A   3      -1.040  13.947  29.978  0.00  0.00    +0.150 HD
ATOM     19  O   SER A   2      -2.738  12.398  27.789  0.00  0.00    -0.273 OA
BRANCH  17  20
ATOM     20  CA  THR A   3      -0.837  14.467  27.893  0.00  0.00    +0.164 C 
BRANCH  20  21
ATOM     21  CB  THR A   3      -1.135  15.963  28.047  0.00  0.00    +0.136 C 
ATOM     22  CG2 THR A   3      -2.645  16.214  27.845  0.00  0.00    +0.034 C 
BRANCH  21  23
ATOM     23  OG1 THR A   3      -0.701  16.421  29.325  0.00  0.00    -0.382 OA
ATOM     24  HG1 THR A   3      -1.178  15.920  30.033  0.00  0.00    +0.210 HD
ENDBRANCH  21  23
ENDBRANCH  20  21
BRANCH  20  25
ATOM     25  C   THR A   3       0.649  14.278  27.687  0.00  0.00    +0.229 C 
ATOM     26  O   THR A   3       1.281  15.049  26.974  0.00  0.00    -0.286 OA
ENDBRANCH  20  25
ENDBRANCH  17  20
ENDBRANCH   1  16
BRANCH   1  27
ATOM     27  CB  SER A   2      -1.299  10.602  29.898  0.00  0.00    +0.166 C 
BRANCH  27  28
ATOM     28  OG  SER A   2       0.033  11.088  29.882  0.00  0.00    -0.380 OA
ATOM     29  H   SER A   2       0.219  11.566  30.729  0.00  0.00    +0.211 HD
ENDBRANCH  27  28
ENDBRANCH   1  27
TORSDOF 13
REMARK  Name = ../refined-set-2016/3zdv/3zdv_pocket.pdb
REMARK  111 active torsions:
REMARK  status: ('A' for Active; 'I' for Inactive)
REMARK    1  A    between atoms: _1  and  _3
REMARK    2  A    between atoms: _3  and  _4
REMARK    3  A    between atoms: _7  and  _9
REMARK    4  A    between atoms: _9  and  _10
REMARK    5  A    between atoms: _9  and  _12
REMARK    6  A    between atoms: _10  and  _11
REMARK    7  A    between atoms: _10  and  _18
REMARK    8  A    between atoms: _11  and  CA_276
REMARK    9  A    between atoms: _12  and  _13
REMARK   10  A    between atoms: _18  and  _20
REMARK   11  A    between atoms: _20  and  _21
REMARK   12  A    between atoms: _20  and  _23
REMARK   13  A    between atoms: _23  and  _24
REMARK   14  A    between atoms: _26  and  _28
REMARK   15  A    between atoms: _28  and  _29
REMARK   16  A    between atoms: _28  and  _31
REMARK   17  A    between atoms: _31  and  _32
REMARK   18  A    between atoms: _34  and  _36
REMARK   19  A    between atoms: _36  and  _37
REMARK   20  A    between atoms: _39  and  _41
REMARK   21  A    between atoms: _41  and  _42
REMARK   22  A    between atoms: _41  and  _44
REMARK   23  A    between atoms: _44  and  _45
REMARK   24  A    between atoms: _48  and  _50
REMARK   25  A    between atoms: _50  and  _51
REMARK   26  A    between atoms: _50  and  _53
REMARK   27  A    between atoms: _53  and  _54
REMARK   28  A    between atoms: _54  and  _55
REMARK   29  A    between atoms: _60  and  _62
REMARK   30  A    between atoms: _62  and  _63
REMARK   31  A    between atoms: _62  and  _65
REMARK   32  A    between atoms: _65  and  _66
REMARK   33  A    between atoms: _66  and  _67
REMARK   34  A    between atoms: _72  and  _74
REMARK   35  A    between atoms: _74  and  _75
REMARK   36  A    between atoms: _74  and  _77
REMARK   37  A    between atoms: _77  and  _78
REMARK   38  A    between atoms: _80  and  _82
REMARK   39  A    between atoms: _82  and  _83
REMARK   40  A    between atoms: _82  and  _85
REMARK   41  A    between atoms: _85  and  _86
REMARK   42  A    between atoms: _89  and  _91
REMARK   43  A    between atoms: _91  and  _92
REMARK   44  A    between atoms: _91  and  _94
REMARK   45  A    between atoms: _97  and  _99
REMARK   46  A    between atoms: _99  and  _100
REMARK   47  A    between atoms: _99  and  _102
REMARK   48  A    between atoms: _102  and  _103
REMARK   49  A    between atoms: _108  and  _110
REMARK   50  A    between atoms: _110  and  _111
REMARK   51  A    between atoms: _110  and  _113
REMARK   52  A    between atoms: _113  and  _114
REMARK   53  A    between atoms: _114  and  _115
REMARK   54  A    between atoms: _115  and  _116
REMARK   55  A    between atoms: _125  and  _127
REMARK   56  A    between atoms: _127  and  _128
REMARK   57  A    between atoms: _127  and  _130
REMARK   58  A    between atoms: _130  and  _131
REMARK   59  A    between atoms: _133  and  _135
REMARK   60  A    between atoms: _135  and  _136
REMARK   61  A    between atoms: _135  and  _138
REMARK   62  A    between atoms: _138  and  _139
REMARK   63  A    between atoms: _141  and  _143
REMARK   64  A    between atoms: _143  and  _144
REMARK   65  A    between atoms: _143  and  _146
REMARK   66  A    between atoms: _146  and  _147
REMARK   67  A    between atoms: _147  and  _148
REMARK   68  A    between atoms: _151  and  _153
REMARK   69  A    between atoms: _153  and  _154
REMARK   70  A    between atoms: _153  and  _156
REMARK   71  A    between atoms: _156  and  _157
REMARK   72  A    between atoms: _160  and  _162
REMARK   73  A    between atoms: _162  and  _163
REMARK   74  A    between atoms: _165  and  _167
REMARK   75  A    between atoms: _167  and  _168
REMARK   76  A    between atoms: _167  and  _170
REMARK   77  A    between atoms: _170  and  _171
REMARK   78  A    between atoms: _174  and  _176
REMARK   79  A    between atoms: _185  and  _188
REMARK   80  A    between atoms: _188  and  _189
REMARK   81  A    between atoms: _196  and  _197
REMARK   82  A    between atoms: _203  and  _205
REMARK   83  A    between atoms: _205  and  _206
REMARK   84  A    between atoms: _205  and  _208
REMARK   85  A    between atoms: _208  and  _209
REMARK   86  A    between atoms: _214  and  _215
REMARK   87  A    between atoms: _217  and  _219
REMARK   88  A    between atoms: _219  and  _220
REMARK   89  A    between atoms: _219  and  _222
REMARK   90  A    between atoms: _222  and  _223
REMARK   91  A    between atoms: _223  and  _224
REMARK   92  A    between atoms: _223  and  _225
REMARK   93  A    between atoms: _224  and  CA_276
REMARK   94  A    between atoms: _228  and  _230
REMARK   95  A    between atoms: _230  and  _231
REMARK   96  A    between atoms: _230  and  _233
REMARK   97  A    between atoms: _233  and  _234
REMARK   98  A    between atoms: _237  and  _239
REMARK   99  A    between atoms: _239  and  _240
REMARK  100  A    between atoms: _243  and  _245
REMARK  101  A    between atoms: _245  and  _246
REMARK  102  A    between atoms: _245  and  _248
REMARK  103  A    between atoms: _248  and  _249
REMARK  104  A    between atoms: _249  and  _250
REMARK  105  A    between atoms: _250  and  _251
REMARK  106  A    between atoms: _260  and  _262
REMARK  107  A    between atoms: _262  and  _263
REMARK  108  A    between atoms: _262  and  _265
REMARK  109  A    between atoms: _265  and  _266
REMARK  110  A    between atoms: _269  and  _271
REMARK  111  A    between atoms: _271  and  _272
REMARK                            x       y       z     vdW  Elec       q    Type
REMARK                         _______ _______ _______ _____ _____    ______ ____
ROOT
ATOM      1  C   VAL A   1     -15.172  10.186  25.349  0.00  0.00    +0.238 C 
ATOM      2  N   ASN A   2     -15.455  10.007  26.634  0.00  0.00    -0.298 N 
ATOM      3  H   ASN A   2     -14.712   9.650  27.268  0.00  0.00    +0.150 HD
ATOM      4  O   VAL A   1     -15.962  10.686  24.534  0.00  0.00    -0.274 OA
ENDROOT
BRANCH   1   5
ATOM      5  CA  VAL A   1     -13.818   9.677  24.899  0.00  0.00    +0.145 C 
BRANCH   5   6
ATOM      6  CB  VAL A   1     -12.981  10.844  24.369  0.00  0.00    +0.025 C 
ATOM      7  CG2 VAL A   1     -12.813  11.884  25.462  0.00  0.00    +0.002 C 
ATOM      8  CG1 VAL A   1     -11.664  10.315  23.876  0.00  0.00    +0.002 C 
ENDBRANCH   5   6
BRANCH   5   9
ATOM      9  N   VAL A   1     -14.078   8.681  23.851  0.00  0.00    -0.238 NA
ATOM     10  H   VAL A   1     -14.750   8.918  23.093  0.00  0.00    +0.142 HD
ENDBRANCH   5   9
ENDBRANCH   1   5
BRANCH   2  11
ATOM     11  CA  ASN A   2     -16.789  10.298  27.192  0.00  0.00    +0.146 C 
BRANCH  11  12
ATOM     12  C   ASN A   2     -17.912   9.756  26.329  0.00  0.00    +0.227 C 
ATOM     13  O   ASN A   2     -18.929  10.429  26.118  0.00  0.00    -0.286 OA
ENDBRANCH  11  12
BRANCH  11  14
ATOM     14  CB  ASN A   2     -16.929  11.806  27.430  0.00  0.00    +0.112 C 
BRANCH  14  15
ATOM     15  CG  ASN A   2     -15.848  12.342  28.379  0.00  0.00    +0.222 C 
ATOM     16  ND2 ASN A   2     -15.319  11.486  29.257  0.00  0.00    -0.329 N 
ATOM     17 HD21 ASN A   2     -14.563  11.800  29.898  0.00  0.00    +0.145 HD
ATOM     18 HD22 ASN A   2     -15.664  10.506  29.300  0.00  0.00    +0.145 HD
ATOM     19  OD1 ASN A   2     -15.472  13.503  28.296  0.00  0.00    -0.275 OA
ENDBRANCH  14  15
ENDBRANCH  11  14
ENDBRANCH   2  11
TORSDOF 7
REMARK  Name = ../refined-set-2016/3zdv/3zdv_pocket.pdb
REMARK  111 active torsions:
REMARK  status: ('A' for Active; 'I' for Inactive)
REMARK    1  A    between atoms: _1  and  _3
REMARK    2  A    between atoms: _3  and  _4
REMARK    3  A    between atoms: _7  and  _9
REMARK    4  A    between atoms: _9  and  _10
REMARK    5  A    between atoms: _9  and  _12
REMARK    6  A    between atoms: _10  and  _11
REMARK    7  A    between atoms: _10  and  _18
REMARK    8  A    between atoms: _11  and  CA_276
REMARK    9  A    between atoms: _12  and  _13
REMARK   10  A    between atoms: _18  and  _20
REMARK   11  A    between atoms: _20  and  _21
REMARK   12  A    between atoms: _20  and  _23
REMARK   13  A    between atoms: _23  and  _24
REMARK   14  A    between atoms: _26  and  _28
REMARK   15  A    between atoms: _28  and  _29
REMARK   16  A    between atoms: _28  and  _31
REMARK   17  A    between atoms: _31  and  _32
REMARK   18  A    between atoms: _34  and  _36
REMARK   19  A    between atoms: _36  and  _37
REMARK   20  A    between atoms: _39  and  _41
REMARK   21  A    between atoms: _41  and  _42
REMARK   22  A    between atoms: _41  and  _44
REMARK   23  A    between atoms: _44  and  _45
REMARK   24  A    between atoms: _48  and  _50
REMARK   25  A    between atoms: _50  and  _51
REMARK   26  A    between atoms: _50  and  _53
REMARK   27  A    between atoms: _53  and  _54
REMARK   28  A    between atoms: _54  and  _55
REMARK   29  A    between atoms: _60  and  _62
REMARK   30  A    between atoms: _62  and  _63
REMARK   31  A    between atoms: _62  and  _65
REMARK   32  A    between atoms: _65  and  _66
REMARK   33  A    between atoms: _66  and  _67
REMARK   34  A    between atoms: _72  and  _74
REMARK   35  A    between atoms: _74  and  _75
REMARK   36  A    between atoms: _74  and  _77
REMARK   37  A    between atoms: _77  and  _78
REMARK   38  A    between atoms: _80  and  _82
REMARK   39  A    between atoms: _82  and  _83
REMARK   40  A    between atoms: _82  and  _85
REMARK   41  A    between atoms: _85  and  _86
REMARK   42  A    between atoms: _89  and  _91
REMARK   43  A    between atoms: _91  and  _92
REMARK   44  A    between atoms: _91  and  _94
REMARK   45  A    between atoms: _97  and  _99
REMARK   46  A    between atoms: _99  and  _100
REMARK   47  A    between atoms: _99  and  _102
REMARK   48  A    between atoms: _102  and  _103
REMARK   49  A    between atoms: _108  and  _110
REMARK   50  A    between atoms: _110  and  _111
REMARK   51  A    between atoms: _110  and  _113
REMARK   52  A    between atoms: _113  and  _114
REMARK   53  A    between atoms: _114  and  _115
REMARK   54  A    between atoms: _115  and  _116
REMARK   55  A    between atoms: _125  and  _127
REMARK   56  A    between atoms: _127  and  _128
REMARK   57  A    between atoms: _127  and  _130
REMARK   58  A    between atoms: _130  and  _131
REMARK   59  A    between atoms: _133  and  _135
REMARK   60  A    between atoms: _135  and  _136
REMARK   61  A    between atoms: _135  and  _138
REMARK   62  A    between atoms: _138  and  _139
REMARK   63  A    between atoms: _141  and  _143
REMARK   64  A    between atoms: _143  and  _144
REMARK   65  A    between atoms: _143  and  _146
REMARK   66  A    between atoms: _146  and  _147
REMARK   67  A    between atoms: _147  and  _148
REMARK   68  A    between atoms: _151  and  _153
REMARK   69  A    between atoms: _153  and  _154
REMARK   70  A    between atoms: _153  and  _156
REMARK   71  A    between atoms: _156  and  _157
REMARK   72  A    between atoms: _160  and  _162
REMARK   73  A    between atoms: _162  and  _163
REMARK   74  A    between atoms: _165  and  _167
REMARK   75  A    between atoms: _167  and  _168
REMARK   76  A    between atoms: _167  and  _170
REMARK   77  A    between atoms: _170  and  _171
REMARK   78  A    between atoms: _174  and  _176
REMARK   79  A    between atoms: _185  and  _188
REMARK   80  A    between atoms: _188  and  _189
REMARK   81  A    between atoms: _196  and  _197
REMARK   82  A    between atoms: _203  and  _205
REMARK   83  A    between atoms: _205  and  _206
REMARK   84  A    between atoms: _205  and  _208
REMARK   85  A    between atoms: _208  and  _209
REMARK   86  A    between atoms: _214  and  _215
REMARK   87  A    between atoms: _217  and  _219
REMARK   88  A    between atoms: _219  and  _220
REMARK   89  A    between atoms: _219  and  _222
REMARK   90  A    between atoms: _222  and  _223
REMARK   91  A    between atoms: _223  and  _224
REMARK   92  A    between atoms: _223  and  _225
REMARK   93  A    between atoms: _224  and  CA_276
REMARK   94  A    between atoms: _228  and  _230
REMARK   95  A    between atoms: _230  and  _231
REMARK   96  A    between atoms: _230  and  _233
REMARK   97  A    between atoms: _233  and  _234
REMARK   98  A    between atoms: _237  and  _239
REMARK   99  A    between atoms: _239  and  _240
REMARK  100  A    between atoms: _243  and  _245
REMARK  101  A    between atoms: _245  and  _246
REMARK  102  A    between atoms: _245  and  _248
REMARK  103  A    between atoms: _248  and  _249
REMARK  104  A    between atoms: _249  and  _250
REMARK  105  A    between atoms: _250  and  _251
REMARK  106  A    between atoms: _260  and  _262
REMARK  107  A    between atoms: _262  and  _263
REMARK  108  A    between atoms: _262  and  _265
REMARK  109  A    between atoms: _265  and  _266
REMARK  110  A    between atoms: _269  and  _271
REMARK  111  A    between atoms: _271  and  _272
REMARK                            x       y       z     vdW  Elec       q    Type
REMARK                         _______ _______ _______ _____ _____    ______ ____
ROOT
ATOM      1  NE  ARG A   1     -21.261  12.600  21.670  0.00  0.00    -0.265 N 
ATOM      2  HE  ARG A   1     -21.654  12.903  22.584  0.00  0.00    +0.259 HD
ATOM      3  CZ  ARG A   1     -21.585  13.290  20.585  0.00  0.00    +0.342 C 
ATOM      4  NH2 ARG A   1     -22.380  14.341  20.682  0.00  0.00    -0.292 N 
ATOM      5 HH21 ARG A   1     -22.752  14.628  21.610  0.00  0.00    +0.255 HD
ATOM      6 HH22 ARG A   1     -22.634  14.882  19.830  0.00  0.00    +0.255 HD
ATOM      7  NH1 ARG A   1     -21.121  12.916  19.401  0.00  0.00    -0.292 N 
ATOM      8 HH11 ARG A   1     -20.504  12.082  19.324  0.00  0.00    +0.255 HD
ATOM      9 HH12 ARG A   1     -21.374  13.456  18.549  0.00  0.00    +0.255 HD
ENDROOT
BRANCH   1  10
ATOM     10  CD  ARG A   1     -20.382  11.439  21.646  0.00  0.00    +0.174 C 
BRANCH  10  11
ATOM     11  CG  ARG A   1     -19.019  11.808  22.171  0.00  0.00    +0.045 C 
BRANCH  11  12
ATOM     12  CB  ARG A   1     -17.924  10.971  21.557  0.00  0.00    +0.029 C 
BRANCH  12  13
ATOM     13  CA  ARG A   1     -18.076   9.460  21.741  0.00  0.00    +0.133 C 
BRANCH  13  14
ATOM     14  N   ARG A   1     -18.058   9.091  23.175  0.00  0.00    -0.239 NA
ATOM     15  H   ARG A   1     -17.432   9.603  23.828  0.00  0.00    +0.142 HD
ENDBRANCH  13  14
BRANCH  13  16
ATOM     16  C   ARG A   1     -16.944   8.743  21.000  0.00  0.00    +0.224 C 
ATOM     17  O   ARG A   1     -15.822   8.871  21.402  0.00  0.00    -0.287 OA
ENDBRANCH  13  16
ENDBRANCH  12  13
ENDBRANCH  11  12
ENDBRANCH  10  11
ENDBRANCH   1  10
TORSDOF 6
REMARK  Name = ../refined-set-2016/3zdv/3zdv_pocket.pdb
REMARK  111 active torsions:
REMARK  status: ('A' for Active; 'I' for Inactive)
REMARK    1  A    between atoms: _1  and  _3
REMARK    2  A    between atoms: _3  and  _4
REMARK    3  A    between atoms: _7  and  _9
REMARK    4  A    between atoms: _9  and  _10
REMARK    5  A    between atoms: _9  and  _12
REMARK    6  A    between atoms: _10  and  _11
REMARK    7  A    between atoms: _10  and  _18
REMARK    8  A    between atoms: _11  and  CA_276
REMARK    9  A    between atoms: _12  and  _13
REMARK   10  A    between atoms: _18  and  _20
REMARK   11  A    between atoms: _20  and  _21
REMARK   12  A    between atoms: _20  and  _23
REMARK   13  A    between atoms: _23  and  _24
REMARK   14  A    between atoms: _26  and  _28
REMARK   15  A    between atoms: _28  and  _29
REMARK   16  A    between atoms: _28  and  _31
REMARK   17  A    between atoms: _31  and  _32
REMARK   18  A    between atoms: _34  and  _36
REMARK   19  A    between atoms: _36  and  _37
REMARK   20  A    between atoms: _39  and  _41
REMARK   21  A    between atoms: _41  and  _42
REMARK   22  A    between atoms: _41  and  _44
REMARK   23  A    between atoms: _44  and  _45
REMARK   24  A    between atoms: _48  and  _50
REMARK   25  A    between atoms: _50  and  _51
REMARK   26  A    between atoms: _50  and  _53
REMARK   27  A    between atoms: _53  and  _54
REMARK   28  A    between atoms: _54  and  _55
REMARK   29  A    between atoms: _60  and  _62
REMARK   30  A    between atoms: _62  and  _63
REMARK   31  A    between atoms: _62  and  _65
REMARK   32  A    between atoms: _65  and  _66
REMARK   33  A    between atoms: _66  and  _67
REMARK   34  A    between atoms: _72  and  _74
REMARK   35  A    between atoms: _74  and  _75
REMARK   36  A    between atoms: _74  and  _77
REMARK   37  A    between atoms: _77  and  _78
REMARK   38  A    between atoms: _80  and  _82
REMARK   39  A    between atoms: _82  and  _83
REMARK   40  A    between atoms: _82  and  _85
REMARK   41  A    between atoms: _85  and  _86
REMARK   42  A    between atoms: _89  and  _91
REMARK   43  A    between atoms: _91  and  _92
REMARK   44  A    between atoms: _91  and  _94
REMARK   45  A    between atoms: _97  and  _99
REMARK   46  A    between atoms: _99  and  _100
REMARK   47  A    between atoms: _99  and  _102
REMARK   48  A    between atoms: _102  and  _103
REMARK   49  A    between atoms: _108  and  _110
REMARK   50  A    between atoms: _110  and  _111
REMARK   51  A    between atoms: _110  and  _113
REMARK   52  A    between atoms: _113  and  _114
REMARK   53  A    between atoms: _114  and  _115
REMARK   54  A    between atoms: _115  and  _116
REMARK   55  A    between atoms: _125  and  _127
REMARK   56  A    between atoms: _127  and  _128
REMARK   57  A    between atoms: _127  and  _130
REMARK   58  A    between atoms: _130  and  _131
REMARK   59  A    between atoms: _133  and  _135
REMARK   60  A    between atoms: _135  and  _136
REMARK   61  A    between atoms: _135  and  _138
REMARK   62  A    between atoms: _138  and  _139
REMARK   63  A    between atoms: _141  and  _143
REMARK   64  A    between atoms: _143  and  _144
REMARK   65  A    between atoms: _143  and  _146
REMARK   66  A    between atoms: _146  and  _147
REMARK   67  A    between atoms: _147  and  _148
REMARK   68  A    between atoms: _151  and  _153
REMARK   69  A    between atoms: _153  and  _154
REMARK   70  A    between atoms: _153  and  _156
REMARK   71  A    between atoms: _156  and  _157
REMARK   72  A    between atoms: _160  and  _162
REMARK   73  A    between atoms: _162  and  _163
REMARK   74  A    between atoms: _165  and  _167
REMARK   75  A    between atoms: _167  and  _168
REMARK   76  A    between atoms: _167  and  _170
REMARK   77  A    between atoms: _170  and  _171
REMARK   78  A    between atoms: _174  and  _176
REMARK   79  A    between atoms: _185  and  _188
REMARK   80  A    between atoms: _188  and  _189
REMARK   81  A    between atoms: _196  and  _197
REMARK   82  A    between atoms: _203  and  _205
REMARK   83  A    between atoms: _205  and  _206
REMARK   84  A    between atoms: _205  and  _208
REMARK   85  A    between atoms: _208  and  _209
REMARK   86  A    between atoms: _214  and  _215
REMARK   87  A    between atoms: _217  and  _219
REMARK   88  A    between atoms: _219  and  _220
REMARK   89  A    between atoms: _219  and  _222
REMARK   90  A    between atoms: _222  and  _223
REMARK   91  A    between atoms: _223  and  _224
REMARK   92  A    between atoms: _223  and  _225
REMARK   93  A    between atoms: _224  and  CA_276
REMARK   94  A    between atoms: _228  and  _230
REMARK   95  A    between atoms: _230  and  _231
REMARK   96  A    between atoms: _230  and  _233
REMARK   97  A    between atoms: _233  and  _234
REMARK   98  A    between atoms: _237  and  _239
REMARK   99  A    between atoms: _239  and  _240
REMARK  100  A    between atoms: _243  and  _245
REMARK  101  A    between atoms: _245  and  _246
REMARK  102  A    between atoms: _245  and  _248
REMARK  103  A    between atoms: _248  and  _249
REMARK  104  A    between atoms: _249  and  _250
REMARK  105  A    between atoms: _250  and  _251
REMARK  106  A    between atoms: _260  and  _262
REMARK  107  A    between atoms: _262  and  _263
REMARK  108  A    between atoms: _262  and  _265
REMARK  109  A    between atoms: _265  and  _266
REMARK  110  A    between atoms: _269  and  _271
REMARK  111  A    between atoms: _271  and  _272
REMARK                            x       y       z     vdW  Elec       q    Type
REMARK                         _______ _______ _______ _____ _____    ______ ____
ROOT
ATOM      1  CA  SER A   1     -12.848   8.823  18.103  0.00  0.00    +0.163 C 
ENDROOT
BRANCH   1   2
ATOM      2  N   SER A   1     -13.858   8.050  18.772  0.00  0.00    -0.237 NA
ATOM      3  H   SER A   1     -13.573   7.263  19.390  0.00  0.00    +0.142 HD
ENDBRANCH   1   2
BRANCH   1   4
ATOM      4  C   SER A   1     -12.683   8.365  16.650  0.00  0.00    +0.227 C 
ATOM      5  O   SER A   1     -12.987   7.259  16.296  0.00  0.00    -0.287 OA
ENDBRANCH   1   4
BRANCH   1   6
ATOM      6  CB  SER A   1     -11.509   8.668  18.817  0.00  0.00    +0.162 C 
BRANCH   6   7
ATOM      7  OG  SER A   1     -11.611   9.106  20.168  0.00  0.00    -0.380 OA
ATOM      8  H   SER A   1     -10.735   8.999  20.616  0.00  0.00    +0.211 HD
ENDBRANCH   6   7
ENDBRANCH   1   6
TORSDOF 4
REMARK  Name = ../refined-set-2016/3zdv/3zdv_pocket.pdb
REMARK  111 active torsions:
REMARK  status: ('A' for Active; 'I' for Inactive)
REMARK    1  A    between atoms: _1  and  _3
REMARK    2  A    between atoms: _3  and  _4
REMARK    3  A    between atoms: _7  and  _9
REMARK    4  A    between atoms: _9  and  _10
REMARK    5  A    between atoms: _9  and  _12
REMARK    6  A    between atoms: _10  and  _11
REMARK    7  A    between atoms: _10  and  _18
REMARK    8  A    between atoms: _11  and  CA_276
REMARK    9  A    between atoms: _12  and  _13
REMARK   10  A    between atoms: _18  and  _20
REMARK   11  A    between atoms: _20  and  _21
REMARK   12  A    between atoms: _20  and  _23
REMARK   13  A    between atoms: _23  and  _24
REMARK   14  A    between atoms: _26  and  _28
REMARK   15  A    between atoms: _28  and  _29
REMARK   16  A    between atoms: _28  and  _31
REMARK   17  A    between atoms: _31  and  _32
REMARK   18  A    between atoms: _34  and  _36
REMARK   19  A    between atoms: _36  and  _37
REMARK   20  A    between atoms: _39  and  _41
REMARK   21  A    between atoms: _41  and  _42
REMARK   22  A    between atoms: _41  and  _44
REMARK   23  A    between atoms: _44  and  _45
REMARK   24  A    between atoms: _48  and  _50
REMARK   25  A    between atoms: _50  and  _51
REMARK   26  A    between atoms: _50  and  _53
REMARK   27  A    between atoms: _53  and  _54
REMARK   28  A    between atoms: _54  and  _55
REMARK   29  A    between atoms: _60  and  _62
REMARK   30  A    between atoms: _62  and  _63
REMARK   31  A    between atoms: _62  and  _65
REMARK   32  A    between atoms: _65  and  _66
REMARK   33  A    between atoms: _66  and  _67
REMARK   34  A    between atoms: _72  and  _74
REMARK   35  A    between atoms: _74  and  _75
REMARK   36  A    between atoms: _74  and  _77
REMARK   37  A    between atoms: _77  and  _78
REMARK   38  A    between atoms: _80  and  _82
REMARK   39  A    between atoms: _82  and  _83
REMARK   40  A    between atoms: _82  and  _85
REMARK   41  A    between atoms: _85  and  _86
REMARK   42  A    between atoms: _89  and  _91
REMARK   43  A    between atoms: _91  and  _92
REMARK   44  A    between atoms: _91  and  _94
REMARK   45  A    between atoms: _97  and  _99
REMARK   46  A    between atoms: _99  and  _100
REMARK   47  A    between atoms: _99  and  _102
REMARK   48  A    between atoms: _102  and  _103
REMARK   49  A    between atoms: _108  and  _110
REMARK   50  A    between atoms: _110  and  _111
REMARK   51  A    between atoms: _110  and  _113
REMARK   52  A    between atoms: _113  and  _114
REMARK   53  A    between atoms: _114  and  _115
REMARK   54  A    between atoms: _115  and  _116
REMARK   55  A    between atoms: _125  and  _127
REMARK   56  A    between atoms: _127  and  _128
REMARK   57  A    between atoms: _127  and  _130
REMARK   58  A    between atoms: _130  and  _131
REMARK   59  A    between atoms: _133  and  _135
REMARK   60  A    between atoms: _135  and  _136
REMARK   61  A    between atoms: _135  and  _138
REMARK   62  A    between atoms: _138  and  _139
REMARK   63  A    between atoms: _141  and  _143
REMARK   64  A    between atoms: _143  and  _144
REMARK   65  A    between atoms: _143  and  _146
REMARK   66  A    between atoms: _146  and  _147
REMARK   67  A    between atoms: _147  and  _148
REMARK   68  A    between atoms: _151  and  _153
REMARK   69  A    between atoms: _153  and  _154
REMARK   70  A    between atoms: _153  and  _156
REMARK   71  A    between atoms: _156  and  _157
REMARK   72  A    between atoms: _160  and  _162
REMARK   73  A    between atoms: _162  and  _163
REMARK   74  A    between atoms: _165  and  _167
REMARK   75  A    between atoms: _167  and  _168
REMARK   76  A    between atoms: _167  and  _170
REMARK   77  A    between atoms: _170  and  _171
REMARK   78  A    between atoms: _174  and  _176
REMARK   79  A    between atoms: _185  and  _188
REMARK   80  A    between atoms: _188  and  _189
REMARK   81  A    between atoms: _196  and  _197
REMARK   82  A    between atoms: _203  and  _205
REMARK   83  A    between atoms: _205  and  _206
REMARK   84  A    between atoms: _205  and  _208
REMARK   85  A    between atoms: _208  and  _209
REMARK   86  A    between atoms: _214  and  _215
REMARK   87  A    between atoms: _217  and  _219
REMARK   88  A    between atoms: _219  and  _220
REMARK   89  A    between atoms: _219  and  _222
REMARK   90  A    between atoms: _222  and  _223
REMARK   91  A    between atoms: _223  and  _224
REMARK   92  A    between atoms: _223  and  _225
REMARK   93  A    between atoms: _224  and  CA_276
REMARK   94  A    between atoms: _228  and  _230
REMARK   95  A    between atoms: _230  and  _231
REMARK   96  A    between atoms: _230  and  _233
REMARK   97  A    between atoms: _233  and  _234
REMARK   98  A    between atoms: _237  and  _239
REMARK   99  A    between atoms: _239  and  _240
REMARK  100  A    between atoms: _243  and  _245
REMARK  101  A    between atoms: _245  and  _246
REMARK  102  A    between atoms: _245  and  _248
REMARK  103  A    between atoms: _248  and  _249
REMARK  104  A    between atoms: _249  and  _250
REMARK  105  A    between atoms: _250  and  _251
REMARK  106  A    between atoms: _260  and  _262
REMARK  107  A    between atoms: _262  and  _263
REMARK  108  A    between atoms: _262  and  _265
REMARK  109  A    between atoms: _265  and  _266
REMARK  110  A    between atoms: _269  and  _271
REMARK  111  A    between atoms: _271  and  _272
REMARK                            x       y       z     vdW  Elec       q    Type
REMARK                         _______ _______ _______ _____ _____    ______ ____
ROOT
ATOM      1  NE  ARG A   1       6.167  16.856  25.421  0.00  0.00    -0.265 N 
ATOM      2  CZ  ARG A   1       5.223  16.303  26.212  0.00  0.00    +0.342 C 
ATOM      3  NH2 ARG A   1       5.614  15.654  27.317  0.00  0.00    -0.292 N 
ATOM      4 HH21 ARG A   1       4.906  15.219  27.943  0.00  0.00    +0.255 HD
ATOM      5 HH22 ARG A   1       6.625  15.585  27.549  0.00  0.00    +0.255 HD
ATOM      6  NH1 ARG A   1       3.922  16.360  25.924  0.00  0.00    -0.292 N 
ATOM      7 HH11 ARG A   1       3.228  15.920  26.562  0.00  0.00    +0.255 HD
ATOM      8 HH12 ARG A   1       3.601  16.844  25.062  0.00  0.00    +0.255 HD
ATOM      9  HE  ARG A   1       5.839  17.323  24.552  0.00  0.00    +0.259 HD
ENDROOT
BRANCH   1  10
ATOM     10  CD  ARG A   1       7.662  16.859  25.683  0.00  0.00    +0.174 C 
BRANCH  10  11
ATOM     11  CG  ARG A   1       8.528  16.815  24.391  0.00  0.00    +0.045 C 
BRANCH  11  12
ATOM     12  CB  ARG A   1       8.099  15.718  23.460  0.00  0.00    +0.029 C 
BRANCH  12  13
ATOM     13  CA  ARG A   1       9.128  15.404  22.384  0.00  0.00    +0.133 C 
BRANCH  13  14
ATOM     14  N   ARG A   1       9.295  16.493  21.437  0.00  0.00    -0.239 NA
ATOM     15  H   ARG A   1       8.630  17.292  21.451  0.00  0.00    +0.142 HD
ENDBRANCH  13  14
BRANCH  13  16
ATOM     16  C   ARG A   1       8.680  14.133  21.647  0.00  0.00    +0.224 C 
ATOM     17  O   ARG A   1       7.843  14.191  20.761  0.00  0.00    -0.287 OA
ENDBRANCH  13  16
ENDBRANCH  12  13
ENDBRANCH  11  12
ENDBRANCH  10  11
ENDBRANCH   1  10
TORSDOF 6
REMARK  Name = ../refined-set-2016/3zdv/3zdv_pocket.pdb
REMARK  111 active torsions:
REMARK  status: ('A' for Active; 'I' for Inactive)
REMARK    1  A    between atoms: _1  and  _3
REMARK    2  A    between atoms: _3  and  _4
REMARK    3  A    between atoms: _7  and  _9
REMARK    4  A    between atoms: _9  and  _10
REMARK    5  A    between atoms: _9  and  _12
REMARK    6  A    between atoms: _10  and  _11
REMARK    7  A    between atoms: _10  and  _18
REMARK    8  A    between atoms: _11  and  CA_276
REMARK    9  A    between atoms: _12  and  _13
REMARK   10  A    between atoms: _18  and  _20
REMARK   11  A    between atoms: _20  and  _21
REMARK   12  A    between atoms: _20  and  _23
REMARK   13  A    between atoms: _23  and  _24
REMARK   14  A    between atoms: _26  and  _28
REMARK   15  A    between atoms: _28  and  _29
REMARK   16  A    between atoms: _28  and  _31
REMARK   17  A    between atoms: _31  and  _32
REMARK   18  A    between atoms: _34  and  _36
REMARK   19  A    between atoms: _36  and  _37
REMARK   20  A    between atoms: _39  and  _41
REMARK   21  A    between atoms: _41  and  _42
REMARK   22  A    between atoms: _41  and  _44
REMARK   23  A    between atoms: _44  and  _45
REMARK   24  A    between atoms: _48  and  _50
REMARK   25  A    between atoms: _50  and  _51
REMARK   26  A    between atoms: _50  and  _53
REMARK   27  A    between atoms: _53  and  _54
REMARK   28  A    between atoms: _54  and  _55
REMARK   29  A    between atoms: _60  and  _62
REMARK   30  A    between atoms: _62  and  _63
REMARK   31  A    between atoms: _62  and  _65
REMARK   32  A    between atoms: _65  and  _66
REMARK   33  A    between atoms: _66  and  _67
REMARK   34  A    between atoms: _72  and  _74
REMARK   35  A    between atoms: _74  and  _75
REMARK   36  A    between atoms: _74  and  _77
REMARK   37  A    between atoms: _77  and  _78
REMARK   38  A    between atoms: _80  and  _82
REMARK   39  A    between atoms: _82  and  _83
REMARK   40  A    between atoms: _82  and  _85
REMARK   41  A    between atoms: _85  and  _86
REMARK   42  A    between atoms: _89  and  _91
REMARK   43  A    between atoms: _91  and  _92
REMARK   44  A    between atoms: _91  and  _94
REMARK   45  A    between atoms: _97  and  _99
REMARK   46  A    between atoms: _99  and  _100
REMARK   47  A    between atoms: _99  and  _102
REMARK   48  A    between atoms: _102  and  _103
REMARK   49  A    between atoms: _108  and  _110
REMARK   50  A    between atoms: _110  and  _111
REMARK   51  A    between atoms: _110  and  _113
REMARK   52  A    between atoms: _113  and  _114
REMARK   53  A    between atoms: _114  and  _115
REMARK   54  A    between atoms: _115  and  _116
REMARK   55  A    between atoms: _125  and  _127
REMARK   56  A    between atoms: _127  and  _128
REMARK   57  A    between atoms: _127  and  _130
REMARK   58  A    between atoms: _130  and  _131
REMARK   59  A    between atoms: _133  and  _135
REMARK   60  A    between atoms: _135  and  _136
REMARK   61  A    between atoms: _135  and  _138
REMARK   62  A    between atoms: _138  and  _139
REMARK   63  A    between atoms: _141  and  _143
REMARK   64  A    between atoms: _143  and  _144
REMARK   65  A    between atoms: _143  and  _146
REMARK   66  A    between atoms: _146  and  _147
REMARK   67  A    between atoms: _147  and  _148
REMARK   68  A    between atoms: _151  and  _153
REMARK   69  A    between atoms: _153  and  _154
REMARK   70  A    between atoms: _153  and  _156
REMARK   71  A    between atoms: _156  and  _157
REMARK   72  A    between atoms: _160  and  _162
REMARK   73  A    between atoms: _162  and  _163
REMARK   74  A    between atoms: _165  and  _167
REMARK   75  A    between atoms: _167  and  _168
REMARK   76  A    between atoms: _167  and  _170
REMARK   77  A    between atoms: _170  and  _171
REMARK   78  A    between atoms: _174  and  _176
REMARK   79  A    between atoms: _185  and  _188
REMARK   80  A    between atoms: _188  and  _189
REMARK   81  A    between atoms: _196  and  _197
REMARK   82  A    between atoms: _203  and  _205
REMARK   83  A    between atoms: _205  and  _206
REMARK   84  A    between atoms: _205  and  _208
REMARK   85  A    between atoms: _208  and  _209
REMARK   86  A    between atoms: _214  and  _215
REMARK   87  A    between atoms: _217  and  _219
REMARK   88  A    between atoms: _219  and  _220
REMARK   89  A    between atoms: _219  and  _222
REMARK   90  A    between atoms: _222  and  _223
REMARK   91  A    between atoms: _223  and  _224
REMARK   92  A    between atoms: _223  and  _225
REMARK   93  A    between atoms: _224  and  CA_276
REMARK   94  A    between atoms: _228  and  _230
REMARK   95  A    between atoms: _230  and  _231
REMARK   96  A    between atoms: _230  and  _233
REMARK   97  A    between atoms: _233  and  _234
REMARK   98  A    between atoms: _237  and  _239
REMARK   99  A    between atoms: _239  and  _240
REMARK  100  A    between atoms: _243  and  _245
REMARK  101  A    between atoms: _245  and  _246
REMARK  102  A    between atoms: _245  and  _248
REMARK  103  A    between atoms: _248  and  _249
REMARK  104  A    between atoms: _249  and  _250
REMARK  105  A    between atoms: _250  and  _251
REMARK  106  A    between atoms: _260  and  _262
REMARK  107  A    between atoms: _262  and  _263
REMARK  108  A    between atoms: _262  and  _265
REMARK  109  A    between atoms: _265  and  _266
REMARK  110  A    between atoms: _269  and  _271
REMARK  111  A    between atoms: _271  and  _272
REMARK                            x       y       z     vdW  Elec       q    Type
REMARK                         _______ _______ _______ _____ _____    ______ ____
ROOT
ATOM      1  C   LEU A   1       2.083  15.059  22.240  0.00  0.00    +0.238 C 
ATOM      2  N   GLY A   2       1.318  14.905  23.312  0.00  0.00    -0.294 N 
ATOM      3  H   GLY A   2       1.299  13.968  23.763  0.00  0.00    +0.150 HD
ATOM      4  O   LEU A   1       2.078  16.074  21.538  0.00  0.00    -0.274 OA
ENDROOT
BRANCH   1   5
ATOM      5  CA  LEU A   1       2.986  13.885  21.883  0.00  0.00    +0.145 C 
BRANCH   5   6
ATOM      6  N   LEU A   1       3.653  14.138  20.604  0.00  0.00    -0.238 NA
ATOM      7  H   LEU A   1       4.426  14.834  20.585  0.00  0.00    +0.142 HD
ENDBRANCH   5   6
BRANCH   5   8
ATOM      8  CB  LEU A   1       4.046  13.670  22.995  0.00  0.00    +0.026 C 
BRANCH   8   9
ATOM      9  CG  LEU A   1       5.059  12.573  22.695  0.00  0.00    +0.002 C 
ATOM     10  CD2 LEU A   1       5.898  12.350  23.957  0.00  0.00    +0.000 C 
ATOM     11  CD1 LEU A   1       4.425  11.239  22.269  0.00  0.00    +0.000 C 
ENDBRANCH   8   9
ENDBRANCH   5   8
ENDBRANCH   1   5
BRANCH   2  12
ATOM     12  CA  GLY A   2       0.510  15.950  23.895  0.00  0.00    +0.205 C 
BRANCH  12  13
ATOM     13  C   GLY A   2      -0.887  16.030  23.379  0.00  0.00    +0.385 C 
ATOM     14  OXT GLY A   2      -1.722  16.675  24.083  0.00  0.00    -0.244 OA
ATOM     15  O   GLY A   2      -1.227  15.530  22.282  0.00  0.00    -0.244 OA
ENDBRANCH  12  13
ENDBRANCH   2  12
TORSDOF 6
REMARK  Name = ../refined-set-2016/3zdv/3zdv_pocket.pdb
REMARK  111 active torsions:
REMARK  status: ('A' for Active; 'I' for Inactive)
REMARK    1  A    between atoms: _1  and  _3
REMARK    2  A    between atoms: _3  and  _4
REMARK    3  A    between atoms: _7  and  _9
REMARK    4  A    between atoms: _9  and  _10
REMARK    5  A    between atoms: _9  and  _12
REMARK    6  A    between atoms: _10  and  _11
REMARK    7  A    between atoms: _10  and  _18
REMARK    8  A    between atoms: _11  and  CA_276
REMARK    9  A    between atoms: _12  and  _13
REMARK   10  A    between atoms: _18  and  _20
REMARK   11  A    between atoms: _20  and  _21
REMARK   12  A    between atoms: _20  and  _23
REMARK   13  A    between atoms: _23  and  _24
REMARK   14  A    between atoms: _26  and  _28
REMARK   15  A    between atoms: _28  and  _29
REMARK   16  A    between atoms: _28  and  _31
REMARK   17  A    between atoms: _31  and  _32
REMARK   18  A    between atoms: _34  and  _36
REMARK   19  A    between atoms: _36  and  _37
REMARK   20  A    between atoms: _39  and  _41
REMARK   21  A    between atoms: _41  and  _42
REMARK   22  A    between atoms: _41  and  _44
REMARK   23  A    between atoms: _44  and  _45
REMARK   24  A    between atoms: _48  and  _50
REMARK   25  A    between atoms: _50  and  _51
REMARK   26  A    between atoms: _50  and  _53
REMARK   27  A    between atoms: _53  and  _54
REMARK   28  A    between atoms: _54  and  _55
REMARK   29  A    between atoms: _60  and  _62
REMARK   30  A    between atoms: _62  and  _63
REMARK   31  A    between atoms: _62  and  _65
REMARK   32  A    between atoms: _65  and  _66
REMARK   33  A    between atoms: _66  and  _67
REMARK   34  A    between atoms: _72  and  _74
REMARK   35  A    between atoms: _74  and  _75
REMARK   36  A    between atoms: _74  and  _77
REMARK   37  A    between atoms: _77  and  _78
REMARK   38  A    between atoms: _80  and  _82
REMARK   39  A    between atoms: _82  and  _83
REMARK   40  A    between atoms: _82  and  _85
REMARK   41  A    between atoms: _85  and  _86
REMARK   42  A    between atoms: _89  and  _91
REMARK   43  A    between atoms: _91  and  _92
REMARK   44  A    between atoms: _91  and  _94
REMARK   45  A    between atoms: _97  and  _99
REMARK   46  A    between atoms: _99  and  _100
REMARK   47  A    between atoms: _99  and  _102
REMARK   48  A    between atoms: _102  and  _103
REMARK   49  A    between atoms: _108  and  _110
REMARK   50  A    between atoms: _110  and  _111
REMARK   51  A    between atoms: _110  and  _113
REMARK   52  A    between atoms: _113  and  _114
REMARK   53  A    between atoms: _114  and  _115
REMARK   54  A    between atoms: _115  and  _116
REMARK   55  A    between atoms: _125  and  _127
REMARK   56  A    between atoms: _127  and  _128
REMARK   57  A    between atoms: _127  and  _130
REMARK   58  A    between atoms: _130  and  _131
REMARK   59  A    between atoms: _133  and  _135
REMARK   60  A    between atoms: _135  and  _136
REMARK   61  A    between atoms: _135  and  _138
REMARK   62  A    between atoms: _138  and  _139
REMARK   63  A    between atoms: _141  and  _143
REMARK   64  A    between atoms: _143  and  _144
REMARK   65  A    between atoms: _143  and  _146
REMARK   66  A    between atoms: _146  and  _147
REMARK   67  A    between atoms: _147  and  _148
REMARK   68  A    between atoms: _151  and  _153
REMARK   69  A    between atoms: _153  and  _154
REMARK   70  A    between atoms: _153  and  _156
REMARK   71  A    between atoms: _156  and  _157
REMARK   72  A    between atoms: _160  and  _162
REMARK   73  A    between atoms: _162  and  _163
REMARK   74  A    between atoms: _165  and  _167
REMARK   75  A    between atoms: _167  and  _168
REMARK   76  A    between atoms: _167  and  _170
REMARK   77  A    between atoms: _170  and  _171
REMARK   78  A    between atoms: _174  and  _176
REMARK   79  A    between atoms: _185  and  _188
REMARK   80  A    between atoms: _188  and  _189
REMARK   81  A    between atoms: _196  and  _197
REMARK   82  A    between atoms: _203  and  _205
REMARK   83  A    between atoms: _205  and  _206
REMARK   84  A    between atoms: _205  and  _208
REMARK   85  A    between atoms: _208  and  _209
REMARK   86  A    between atoms: _214  and  _215
REMARK   87  A    between atoms: _217  and  _219
REMARK   88  A    between atoms: _219  and  _220
REMARK   89  A    between atoms: _219  and  _222
REMARK   90  A    between atoms: _222  and  _223
REMARK   91  A    between atoms: _223  and  _224
REMARK   92  A    between atoms: _223  and  _225
REMARK   93  A    between atoms: _224  and  CA_276
REMARK   94  A    between atoms: _228  and  _230
REMARK   95  A    between atoms: _230  and  _231
REMARK   96  A    between atoms: _230  and  _233
REMARK   97  A    between atoms: _233  and  _234
REMARK   98  A    between atoms: _237  and  _239
REMARK   99  A    between atoms: _239  and  _240
REMARK  100  A    between atoms: _243  and  _245
REMARK  101  A    between atoms: _245  and  _246
REMARK  102  A    between atoms: _245  and  _248
REMARK  103  A    between atoms: _248  and  _249
REMARK  104  A    between atoms: _249  and  _250
REMARK  105  A    between atoms: _250  and  _251
REMARK  106  A    between atoms: _260  and  _262
REMARK  107  A    between atoms: _262  and  _263
REMARK  108  A    between atoms: _262  and  _265
REMARK  109  A    between atoms: _265  and  _266
REMARK  110  A    between atoms: _269  and  _271
REMARK  111  A    between atoms: _271  and  _272
REMARK                            x       y       z     vdW  Elec       q    Type
REMARK                         _______ _______ _______ _____ _____    ______ ____
ROOT
ATOM      1  O   HOH     1      -5.663  11.325  27.770  0.00  0.00    +0.000 OA
ENDROOT
TORSDOF 0
REMARK  Name = ../refined-set-2016/3zdv/3zdv_pocket.pdb
REMARK  111 active torsions:
REMARK  status: ('A' for Active; 'I' for Inactive)
REMARK    1  A    between atoms: _1  and  _3
REMARK    2  A    between atoms: _3  and  _4
REMARK    3  A    between atoms: _7  and  _9
REMARK    4  A    between atoms: _9  and  _10
REMARK    5  A    between atoms: _9  and  _12
REMARK    6  A    between atoms: _10  and  _11
REMARK    7  A    between atoms: _10  and  _18
REMARK    8  A    between atoms: _11  and  CA_276
REMARK    9  A    between atoms: _12  and  _13
REMARK   10  A    between atoms: _18  and  _20
REMARK   11  A    between atoms: _20  and  _21
REMARK   12  A    between atoms: _20  and  _23
REMARK   13  A    between atoms: _23  and  _24
REMARK   14  A    between atoms: _26  and  _28
REMARK   15  A    between atoms: _28  and  _29
REMARK   16  A    between atoms: _28  and  _31
REMARK   17  A    between atoms: _31  and  _32
REMARK   18  A    between atoms: _34  and  _36
REMARK   19  A    between atoms: _36  and  _37
REMARK   20  A    between atoms: _39  and  _41
REMARK   21  A    between atoms: _41  and  _42
REMARK   22  A    between atoms: _41  and  _44
REMARK   23  A    between atoms: _44  and  _45
REMARK   24  A    between atoms: _48  and  _50
REMARK   25  A    between atoms: _50  and  _51
REMARK   26  A    between atoms: _50  and  _53
REMARK   27  A    between atoms: _53  and  _54
REMARK   28  A    between atoms: _54  and  _55
REMARK   29  A    between atoms: _60  and  _62
REMARK   30  A    between atoms: _62  and  _63
REMARK   31  A    between atoms: _62  and  _65
REMARK   32  A    between atoms: _65  and  _66
REMARK   33  A    between atoms: _66  and  _67
REMARK   34  A    between atoms: _72  and  _74
REMARK   35  A    between atoms: _74  and  _75
REMARK   36  A    between atoms: _74  and  _77
REMARK   37  A    between atoms: _77  and  _78
REMARK   38  A    between atoms: _80  and  _82
REMARK   39  A    between atoms: _82  and  _83
REMARK   40  A    between atoms: _82  and  _85
REMARK   41  A    between atoms: _85  and  _86
REMARK   42  A    between atoms: _89  and  _91
REMARK   43  A    between atoms: _91  and  _92
REMARK   44  A    between atoms: _91  and  _94
REMARK   45  A    between atoms: _97  and  _99
REMARK   46  A    between atoms: _99  and  _100
REMARK   47  A    between atoms: _99  and  _102
REMARK   48  A    between atoms: _102  and  _103
REMARK   49  A    between atoms: _108  and  _110
REMARK   50  A    between atoms: _110  and  _111
REMARK   51  A    between atoms: _110  and  _113
REMARK   52  A    between atoms: _113  and  _114
REMARK   53  A    between atoms: _114  and  _115
REMARK   54  A    between atoms: _115  and  _116
REMARK   55  A    between atoms: _125  and  _127
REMARK   56  A    between atoms: _127  and  _128
REMARK   57  A    between atoms: _127  and  _130
REMARK   58  A    between atoms: _130  and  _131
REMARK   59  A    between atoms: _133  and  _135
REMARK   60  A    between atoms: _135  and  _136
REMARK   61  A    between atoms: _135  and  _138
REMARK   62  A    between atoms: _138  and  _139
REMARK   63  A    between atoms: _141  and  _143
REMARK   64  A    between atoms: _143  and  _144
REMARK   65  A    between atoms: _143  and  _146
REMARK   66  A    between atoms: _146  and  _147
REMARK   67  A    between atoms: _147  and  _148
REMARK   68  A    between atoms: _151  and  _153
REMARK   69  A    between atoms: _153  and  _154
REMARK   70  A    between atoms: _153  and  _156
REMARK   71  A    between atoms: _156  and  _157
REMARK   72  A    between atoms: _160  and  _162
REMARK   73  A    between atoms: _162  and  _163
REMARK   74  A    between atoms: _165  and  _167
REMARK   75  A    between atoms: _167  and  _168
REMARK   76  A    between atoms: _167  and  _170
REMARK   77  A    between atoms: _170  and  _171
REMARK   78  A    between atoms: _174  and  _176
REMARK   79  A    between atoms: _185  and  _188
REMARK   80  A    between atoms: _188  and  _189
REMARK   81  A    between atoms: _196  and  _197
REMARK   82  A    between atoms: _203  and  _205
REMARK   83  A    between atoms: _205  and  _206
REMARK   84  A    between atoms: _205  and  _208
REMARK   85  A    between atoms: _208  and  _209
REMARK   86  A    between atoms: _214  and  _215
REMARK   87  A    between atoms: _217  and  _219
REMARK   88  A    between atoms: _219  and  _220
REMARK   89  A    between atoms: _219  and  _222
REMARK   90  A    between atoms: _222  and  _223
REMARK   91  A    between atoms: _223  and  _224
REMARK   92  A    between atoms: _223  and  _225
REMARK   93  A    between atoms: _224  and  CA_276
REMARK   94  A    between atoms: _228  and  _230
REMARK   95  A    between atoms: _230  and  _231
REMARK   96  A    between atoms: _230  and  _233
REMARK   97  A    between atoms: _233  and  _234
REMARK   98  A    between atoms: _237  and  _239
REMARK   99  A    between atoms: _239  and  _240
REMARK  100  A    between atoms: _243  and  _245
REMARK  101  A    between atoms: _245  and  _246
REMARK  102  A    between atoms: _245  and  _248
REMARK  103  A    between atoms: _248  and  _249
REMARK  104  A    between atoms: _249  and  _250
REMARK  105  A    between atoms: _250  and  _251
REMARK  106  A    between atoms: _260  and  _262
REMARK  107  A    between atoms: _262  and  _263
REMARK  108  A    between atoms: _262  and  _265
REMARK  109  A    between atoms: _265  and  _266
REMARK  110  A    between atoms: _269  and  _271
REMARK  111  A    between atoms: _271  and  _272
REMARK                            x       y       z     vdW  Elec       q    Type
REMARK                         _______ _______ _______ _____ _____    ______ ____
ROOT
ATOM      1  O   HOH     1      -3.522  19.688  27.394  0.00  0.00    +0.000 OA
ENDROOT
TORSDOF 0
REMARK  Name = ../refined-set-2016/3zdv/3zdv_pocket.pdb
REMARK  111 active torsions:
REMARK  status: ('A' for Active; 'I' for Inactive)
REMARK    1  A    between atoms: _1  and  _3
REMARK    2  A    between atoms: _3  and  _4
REMARK    3  A    between atoms: _7  and  _9
REMARK    4  A    between atoms: _9  and  _10
REMARK    5  A    between atoms: _9  and  _12
REMARK    6  A    between atoms: _10  and  _11
REMARK    7  A    between atoms: _10  and  _18
REMARK    8  A    between atoms: _11  and  CA_276
REMARK    9  A    between atoms: _12  and  _13
REMARK   10  A    between atoms: _18  and  _20
REMARK   11  A    between atoms: _20  and  _21
REMARK   12  A    between atoms: _20  and  _23
REMARK   13  A    between atoms: _23  and  _24
REMARK   14  A    between atoms: _26  and  _28
REMARK   15  A    between atoms: _28  and  _29
REMARK   16  A    between atoms: _28  and  _31
REMARK   17  A    between atoms: _31  and  _32
REMARK   18  A    between atoms: _34  and  _36
REMARK   19  A    between atoms: _36  and  _37
REMARK   20  A    between atoms: _39  and  _41
REMARK   21  A    between atoms: _41  and  _42
REMARK   22  A    between atoms: _41  and  _44
REMARK   23  A    between atoms: _44  and  _45
REMARK   24  A    between atoms: _48  and  _50
REMARK   25  A    between atoms: _50  and  _51
REMARK   26  A    between atoms: _50  and  _53
REMARK   27  A    between atoms: _53  and  _54
REMARK   28  A    between atoms: _54  and  _55
REMARK   29  A    between atoms: _60  and  _62
REMARK   30  A    between atoms: _62  and  _63
REMARK   31  A    between atoms: _62  and  _65
REMARK   32  A    between atoms: _65  and  _66
REMARK   33  A    between atoms: _66  and  _67
REMARK   34  A    between atoms: _72  and  _74
REMARK   35  A    between atoms: _74  and  _75
REMARK   36  A    between atoms: _74  and  _77
REMARK   37  A    between atoms: _77  and  _78
REMARK   38  A    between atoms: _80  and  _82
REMARK   39  A    between atoms: _82  and  _83
REMARK   40  A    between atoms: _82  and  _85
REMARK   41  A    between atoms: _85  and  _86
REMARK   42  A    between atoms: _89  and  _91
REMARK   43  A    between atoms: _91  and  _92
REMARK   44  A    between atoms: _91  and  _94
REMARK   45  A    between atoms: _97  and  _99
REMARK   46  A    between atoms: _99  and  _100
REMARK   47  A    between atoms: _99  and  _102
REMARK   48  A    between atoms: _102  and  _103
REMARK   49  A    between atoms: _108  and  _110
REMARK   50  A    between atoms: _110  and  _111
REMARK   51  A    between atoms: _110  and  _113
REMARK   52  A    between atoms: _113  and  _114
REMARK   53  A    between atoms: _114  and  _115
REMARK   54  A    between atoms: _115  and  _116
REMARK   55  A    between atoms: _125  and  _127
REMARK   56  A    between atoms: _127  and  _128
REMARK   57  A    between atoms: _127  and  _130
REMARK   58  A    between atoms: _130  and  _131
REMARK   59  A    between atoms: _133  and  _135
REMARK   60  A    between atoms: _135  and  _136
REMARK   61  A    between atoms: _135  and  _138
REMARK   62  A    between atoms: _138  and  _139
REMARK   63  A    between atoms: _141  and  _143
REMARK   64  A    between atoms: _143  and  _144
REMARK   65  A    between atoms: _143  and  _146
REMARK   66  A    between atoms: _146  and  _147
REMARK   67  A    between atoms: _147  and  _148
REMARK   68  A    between atoms: _151  and  _153
REMARK   69  A    between atoms: _153  and  _154
REMARK   70  A    between atoms: _153  and  _156
REMARK   71  A    between atoms: _156  and  _157
REMARK   72  A    between atoms: _160  and  _162
REMARK   73  A    between atoms: _162  and  _163
REMARK   74  A    between atoms: _165  and  _167
REMARK   75  A    between atoms: _167  and  _168
REMARK   76  A    between atoms: _167  and  _170
REMARK   77  A    between atoms: _170  and  _171
REMARK   78  A    between atoms: _174  and  _176
REMARK   79  A    between atoms: _185  and  _188
REMARK   80  A    between atoms: _188  and  _189
REMARK   81  A    between atoms: _196  and  _197
REMARK   82  A    between atoms: _203  and  _205
REMARK   83  A    between atoms: _205  and  _206
REMARK   84  A    between atoms: _205  and  _208
REMARK   85  A    between atoms: _208  and  _209
REMARK   86  A    between atoms: _214  and  _215
REMARK   87  A    between atoms: _217  and  _219
REMARK   88  A    between atoms: _219  and  _220
REMARK   89  A    between atoms: _219  and  _222
REMARK   90  A    between atoms: _222  and  _223
REMARK   91  A    between atoms: _223  and  _224
REMARK   92  A    between atoms: _223  and  _225
REMARK   93  A    between atoms: _224  and  CA_276
REMARK   94  A    between atoms: _228  and  _230
REMARK   95  A    between atoms: _230  and  _231
REMARK   96  A    between atoms: _230  and  _233
REMARK   97  A    between atoms: _233  and  _234
REMARK   98  A    between atoms: _237  and  _239
REMARK   99  A    between atoms: _239  and  _240
REMARK  100  A    between atoms: _243  and  _245
REMARK  101  A    between atoms: _245  and  _246
REMARK  102  A    between atoms: _245  and  _248
REMARK  103  A    between atoms: _248  and  _249
REMARK  104  A    between atoms: _249  and  _250
REMARK  105  A    between atoms: _250  and  _251
REMARK  106  A    between atoms: _260  and  _262
REMARK  107  A    between atoms: _262  and  _263
REMARK  108  A    between atoms: _262  and  _265
REMARK  109  A    between atoms: _265  and  _266
REMARK  110  A    between atoms: _269  and  _271
REMARK  111  A    between atoms: _271  and  _272
REMARK                            x       y       z     vdW  Elec       q    Type
REMARK                         _______ _______ _______ _____ _____    ______ ____
ROOT
ATOM      1  O   HOH     1     -12.621  12.831  29.804  0.00  0.00    +0.000 OA
ENDROOT
TORSDOF 0
REMARK  Name = ../refined-set-2016/3zdv/3zdv_pocket.pdb
REMARK  111 active torsions:
REMARK  status: ('A' for Active; 'I' for Inactive)
REMARK    1  A    between atoms: _1  and  _3
REMARK    2  A    between atoms: _3  and  _4
REMARK    3  A    between atoms: _7  and  _9
REMARK    4  A    between atoms: _9  and  _10
REMARK    5  A    between atoms: _9  and  _12
REMARK    6  A    between atoms: _10  and  _11
REMARK    7  A    between atoms: _10  and  _18
REMARK    8  A    between atoms: _11  and  CA_276
REMARK    9  A    between atoms: _12  and  _13
REMARK   10  A    between atoms: _18  and  _20
REMARK   11  A    between atoms: _20  and  _21
REMARK   12  A    between atoms: _20  and  _23
REMARK   13  A    between atoms: _23  and  _24
REMARK   14  A    between atoms: _26  and  _28
REMARK   15  A    between atoms: _28  and  _29
REMARK   16  A    between atoms: _28  and  _31
REMARK   17  A    between atoms: _31  and  _32
REMARK   18  A    between atoms: _34  and  _36
REMARK   19  A    between atoms: _36  and  _37
REMARK   20  A    between atoms: _39  and  _41
REMARK   21  A    between atoms: _41  and  _42
REMARK   22  A    between atoms: _41  and  _44
REMARK   23  A    between atoms: _44  and  _45
REMARK   24  A    between atoms: _48  and  _50
REMARK   25  A    between atoms: _50  and  _51
REMARK   26  A    between atoms: _50  and  _53
REMARK   27  A    between atoms: _53  and  _54
REMARK   28  A    between atoms: _54  and  _55
REMARK   29  A    between atoms: _60  and  _62
REMARK   30  A    between atoms: _62  and  _63
REMARK   31  A    between atoms: _62  and  _65
REMARK   32  A    between atoms: _65  and  _66
REMARK   33  A    between atoms: _66  and  _67
REMARK   34  A    between atoms: _72  and  _74
REMARK   35  A    between atoms: _74  and  _75
REMARK   36  A    between atoms: _74  and  _77
REMARK   37  A    between atoms: _77  and  _78
REMARK   38  A    between atoms: _80  and  _82
REMARK   39  A    between atoms: _82  and  _83
REMARK   40  A    between atoms: _82  and  _85
REMARK   41  A    between atoms: _85  and  _86
REMARK   42  A    between atoms: _89  and  _91
REMARK   43  A    between atoms: _91  and  _92
REMARK   44  A    between atoms: _91  and  _94
REMARK   45  A    between atoms: _97  and  _99
REMARK   46  A    between atoms: _99  and  _100
REMARK   47  A    between atoms: _99  and  _102
REMARK   48  A    between atoms: _102  and  _103
REMARK   49  A    between atoms: _108  and  _110
REMARK   50  A    between atoms: _110  and  _111
REMARK   51  A    between atoms: _110  and  _113
REMARK   52  A    between atoms: _113  and  _114
REMARK   53  A    between atoms: _114  and  _115
REMARK   54  A    between atoms: _115  and  _116
REMARK   55  A    between atoms: _125  and  _127
REMARK   56  A    between atoms: _127  and  _128
REMARK   57  A    between atoms: _127  and  _130
REMARK   58  A    between atoms: _130  and  _131
REMARK   59  A    between atoms: _133  and  _135
REMARK   60  A    between atoms: _135  and  _136
REMARK   61  A    between atoms: _135  and  _138
REMARK   62  A    between atoms: _138  and  _139
REMARK   63  A    between atoms: _141  and  _143
REMARK   64  A    between atoms: _143  and  _144
REMARK   65  A    between atoms: _143  and  _146
REMARK   66  A    between atoms: _146  and  _147
REMARK   67  A    between atoms: _147  and  _148
REMARK   68  A    between atoms: _151  and  _153
REMARK   69  A    between atoms: _153  and  _154
REMARK   70  A    between atoms: _153  and  _156
REMARK   71  A    between atoms: _156  and  _157
REMARK   72  A    between atoms: _160  and  _162
REMARK   73  A    between atoms: _162  and  _163
REMARK   74  A    between atoms: _165  and  _167
REMARK   75  A    between atoms: _167  and  _168
REMARK   76  A    between atoms: _167  and  _170
REMARK   77  A    between atoms: _170  and  _171
REMARK   78  A    between atoms: _174  and  _176
REMARK   79  A    between atoms: _185  and  _188
REMARK   80  A    between atoms: _188  and  _189
REMARK   81  A    between atoms: _196  and  _197
REMARK   82  A    between atoms: _203  and  _205
REMARK   83  A    between atoms: _205  and  _206
REMARK   84  A    between atoms: _205  and  _208
REMARK   85  A    between atoms: _208  and  _209
REMARK   86  A    between atoms: _214  and  _215
REMARK   87  A    between atoms: _217  and  _219
REMARK   88  A    between atoms: _219  and  _220
REMARK   89  A    between atoms: _219  and  _222
REMARK   90  A    between atoms: _222  and  _223
REMARK   91  A    between atoms: _223  and  _224
REMARK   92  A    between atoms: _223  and  _225
REMARK   93  A    between atoms: _224  and  CA_276
REMARK   94  A    between atoms: _228  and  _230
REMARK   95  A    between atoms: _230  and  _231
REMARK   96  A    between atoms: _230  and  _233
REMARK   97  A    between atoms: _233  and  _234
REMARK   98  A    between atoms: _237  and  _239
REMARK   99  A    between atoms: _239  and  _240
REMARK  100  A    between atoms: _243  and  _245
REMARK  101  A    between atoms: _245  and  _246
REMARK  102  A    between atoms: _245  and  _248
REMARK  103  A    between atoms: _248  and  _249
REMARK  104  A    between atoms: _249  and  _250
REMARK  105  A    between atoms: _250  and  _251
REMARK  106  A    between atoms: _260  and  _262
REMARK  107  A    between atoms: _262  and  _263
REMARK  108  A    between atoms: _262  and  _265
REMARK  109  A    between atoms: _265  and  _266
REMARK  110  A    between atoms: _269  and  _271
REMARK  111  A    between atoms: _271  and  _272
REMARK                            x       y       z     vdW  Elec       q    Type
REMARK                         _______ _______ _______ _____ _____    ______ ____
ROOT
ATOM      1  O   HOH     1      -9.077   9.446  20.903  0.00  0.00    +0.000 OA
ENDROOT
TORSDOF 0
REMARK  Name = ../refined-set-2016/3zdv/3zdv_pocket.pdb
REMARK  111 active torsions:
REMARK  status: ('A' for Active; 'I' for Inactive)
REMARK    1  A    between atoms: _1  and  _3
REMARK    2  A    between atoms: _3  and  _4
REMARK    3  A    between atoms: _7  and  _9
REMARK    4  A    between atoms: _9  and  _10
REMARK    5  A    between atoms: _9  and  _12
REMARK    6  A    between atoms: _10  and  _11
REMARK    7  A    between atoms: _10  and  _18
REMARK    8  A    between atoms: _11  and  CA_276
REMARK    9  A    between atoms: _12  and  _13
REMARK   10  A    between atoms: _18  and  _20
REMARK   11  A    between atoms: _20  and  _21
REMARK   12  A    between atoms: _20  and  _23
REMARK   13  A    between atoms: _23  and  _24
REMARK   14  A    between atoms: _26  and  _28
REMARK   15  A    between atoms: _28  and  _29
REMARK   16  A    between atoms: _28  and  _31
REMARK   17  A    between atoms: _31  and  _32
REMARK   18  A    between atoms: _34  and  _36
REMARK   19  A    between atoms: _36  and  _37
REMARK   20  A    between atoms: _39  and  _41
REMARK   21  A    between atoms: _41  and  _42
REMARK   22  A    between atoms: _41  and  _44
REMARK   23  A    between atoms: _44  and  _45
REMARK   24  A    between atoms: _48  and  _50
REMARK   25  A    between atoms: _50  and  _51
REMARK   26  A    between atoms: _50  and  _53
REMARK   27  A    between atoms: _53  and  _54
REMARK   28  A    between atoms: _54  and  _55
REMARK   29  A    between atoms: _60  and  _62
REMARK   30  A    between atoms: _62  and  _63
REMARK   31  A    between atoms: _62  and  _65
REMARK   32  A    between atoms: _65  and  _66
REMARK   33  A    between atoms: _66  and  _67
REMARK   34  A    between atoms: _72  and  _74
REMARK   35  A    between atoms: _74  and  _75
REMARK   36  A    between atoms: _74  and  _77
REMARK   37  A    between atoms: _77  and  _78
REMARK   38  A    between atoms: _80  and  _82
REMARK   39  A    between atoms: _82  and  _83
REMARK   40  A    between atoms: _82  and  _85
REMARK   41  A    between atoms: _85  and  _86
REMARK   42  A    between atoms: _89  and  _91
REMARK   43  A    between atoms: _91  and  _92
REMARK   44  A    between atoms: _91  and  _94
REMARK   45  A    between atoms: _97  and  _99
REMARK   46  A    between atoms: _99  and  _100
REMARK   47  A    between atoms: _99  and  _102
REMARK   48  A    between atoms: _102  and  _103
REMARK   49  A    between atoms: _108  and  _110
REMARK   50  A    between atoms: _110  and  _111
REMARK   51  A    between atoms: _110  and  _113
REMARK   52  A    between atoms: _113  and  _114
REMARK   53  A    between atoms: _114  and  _115
REMARK   54  A    between atoms: _115  and  _116
REMARK   55  A    between atoms: _125  and  _127
REMARK   56  A    between atoms: _127  and  _128
REMARK   57  A    between atoms: _127  and  _130
REMARK   58  A    between atoms: _130  and  _131
REMARK   59  A    between atoms: _133  and  _135
REMARK   60  A    between atoms: _135  and  _136
REMARK   61  A    between atoms: _135  and  _138
REMARK   62  A    between atoms: _138  and  _139
REMARK   63  A    between atoms: _141  and  _143
REMARK   64  A    between atoms: _143  and  _144
REMARK   65  A    between atoms: _143  and  _146
REMARK   66  A    between atoms: _146  and  _147
REMARK   67  A    between atoms: _147  and  _148
REMARK   68  A    between atoms: _151  and  _153
REMARK   69  A    between atoms: _153  and  _154
REMARK   70  A    between atoms: _153  and  _156
REMARK   71  A    between atoms: _156  and  _157
REMARK   72  A    between atoms: _160  and  _162
REMARK   73  A    between atoms: _162  and  _163
REMARK   74  A    between atoms: _165  and  _167
REMARK   75  A    between atoms: _167  and  _168
REMARK   76  A    between atoms: _167  and  _170
REMARK   77  A    between atoms: _170  and  _171
REMARK   78  A    between atoms: _174  and  _176
REMARK   79  A    between atoms: _185  and  _188
REMARK   80  A    between atoms: _188  and  _189
REMARK   81  A    between atoms: _196  and  _197
REMARK   82  A    between atoms: _203  and  _205
REMARK   83  A    between atoms: _205  and  _206
REMARK   84  A    between atoms: _205  and  _208
REMARK   85  A    between atoms: _208  and  _209
REMARK   86  A    between atoms: _214  and  _215
REMARK   87  A    between atoms: _217  and  _219
REMARK   88  A    between atoms: _219  and  _220
REMARK   89  A    between atoms: _219  and  _222
REMARK   90  A    between atoms: _222  and  _223
REMARK   91  A    between atoms: _223  and  _224
REMARK   92  A    between atoms: _223  and  _225
REMARK   93  A    between atoms: _224  and  CA_276
REMARK   94  A    between atoms: _228  and  _230
REMARK   95  A    between atoms: _230  and  _231
REMARK   96  A    between atoms: _230  and  _233
REMARK   97  A    between atoms: _233  and  _234
REMARK   98  A    between atoms: _237  and  _239
REMARK   99  A    between atoms: _239  and  _240
REMARK  100  A    between atoms: _243  and  _245
REMARK  101  A    between atoms: _245  and  _246
REMARK  102  A    between atoms: _245  and  _248
REMARK  103  A    between atoms: _248  and  _249
REMARK  104  A    between atoms: _249  and  _250
REMARK  105  A    between atoms: _250  and  _251
REMARK  106  A    between atoms: _260  and  _262
REMARK  107  A    between atoms: _262  and  _263
REMARK  108  A    between atoms: _262  and  _265
REMARK  109  A    between atoms: _265  and  _266
REMARK  110  A    between atoms: _269  and  _271
REMARK  111  A    between atoms: _271  and  _272
REMARK                            x       y       z     vdW  Elec       q    Type
REMARK                         _______ _______ _______ _____ _____    ______ ____
ROOT
ATOM      1  O   HOH     1     -16.517  15.738  24.593  0.00  0.00    +0.000 OA
ENDROOT
TORSDOF 0
REMARK  Name = ../refined-set-2016/3zdv/3zdv_pocket.pdb
REMARK  111 active torsions:
REMARK  status: ('A' for Active; 'I' for Inactive)
REMARK    1  A    between atoms: _1  and  _3
REMARK    2  A    between atoms: _3  and  _4
REMARK    3  A    between atoms: _7  and  _9
REMARK    4  A    between atoms: _9  and  _10
REMARK    5  A    between atoms: _9  and  _12
REMARK    6  A    between atoms: _10  and  _11
REMARK    7  A    between atoms: _10  and  _18
REMARK    8  A    between atoms: _11  and  CA_276
REMARK    9  A    between atoms: _12  and  _13
REMARK   10  A    between atoms: _18  and  _20
REMARK   11  A    between atoms: _20  and  _21
REMARK   12  A    between atoms: _20  and  _23
REMARK   13  A    between atoms: _23  and  _24
REMARK   14  A    between atoms: _26  and  _28
REMARK   15  A    between atoms: _28  and  _29
REMARK   16  A    between atoms: _28  and  _31
REMARK   17  A    between atoms: _31  and  _32
REMARK   18  A    between atoms: _34  and  _36
REMARK   19  A    between atoms: _36  and  _37
REMARK   20  A    between atoms: _39  and  _41
REMARK   21  A    between atoms: _41  and  _42
REMARK   22  A    between atoms: _41  and  _44
REMARK   23  A    between atoms: _44  and  _45
REMARK   24  A    between atoms: _48  and  _50
REMARK   25  A    between atoms: _50  and  _51
REMARK   26  A    between atoms: _50  and  _53
REMARK   27  A    between atoms: _53  and  _54
REMARK   28  A    between atoms: _54  and  _55
REMARK   29  A    between atoms: _60  and  _62
REMARK   30  A    between atoms: _62  and  _63
REMARK   31  A    between atoms: _62  and  _65
REMARK   32  A    between atoms: _65  and  _66
REMARK   33  A    between atoms: _66  and  _67
REMARK   34  A    between atoms: _72  and  _74
REMARK   35  A    between atoms: _74  and  _75
REMARK   36  A    between atoms: _74  and  _77
REMARK   37  A    between atoms: _77  and  _78
REMARK   38  A    between atoms: _80  and  _82
REMARK   39  A    between atoms: _82  and  _83
REMARK   40  A    between atoms: _82  and  _85
REMARK   41  A    between atoms: _85  and  _86
REMARK   42  A    between atoms: _89  and  _91
REMARK   43  A    between atoms: _91  and  _92
REMARK   44  A    between atoms: _91  and  _94
REMARK   45  A    between atoms: _97  and  _99
REMARK   46  A    between atoms: _99  and  _100
REMARK   47  A    between atoms: _99  and  _102
REMARK   48  A    between atoms: _102  and  _103
REMARK   49  A    between atoms: _108  and  _110
REMARK   50  A    between atoms: _110  and  _111
REMARK   51  A    between atoms: _110  and  _113
REMARK   52  A    between atoms: _113  and  _114
REMARK   53  A    between atoms: _114  and  _115
REMARK   54  A    between atoms: _115  and  _116
REMARK   55  A    between atoms: _125  and  _127
REMARK   56  A    between atoms: _127  and  _128
REMARK   57  A    between atoms: _127  and  _130
REMARK   58  A    between atoms: _130  and  _131
REMARK   59  A    between atoms: _133  and  _135
REMARK   60  A    between atoms: _135  and  _136
REMARK   61  A    between atoms: _135  and  _138
REMARK   62  A    between atoms: _138  and  _139
REMARK   63  A    between atoms: _141  and  _143
REMARK   64  A    between atoms: _143  and  _144
REMARK   65  A    between atoms: _143  and  _146
REMARK   66  A    between atoms: _146  and  _147
REMARK   67  A    between atoms: _147  and  _148
REMARK   68  A    between atoms: _151  and  _153
REMARK   69  A    between atoms: _153  and  _154
REMARK   70  A    between atoms: _153  and  _156
REMARK   71  A    between atoms: _156  and  _157
REMARK   72  A    between atoms: _160  and  _162
REMARK   73  A    between atoms: _162  and  _163
REMARK   74  A    between atoms: _165  and  _167
REMARK   75  A    between atoms: _167  and  _168
REMARK   76  A    between atoms: _167  and  _170
REMARK   77  A    between atoms: _170  and  _171
REMARK   78  A    between atoms: _174  and  _176
REMARK   79  A    between atoms: _185  and  _188
REMARK   80  A    between atoms: _188  and  _189
REMARK   81  A    between atoms: _196  and  _197
REMARK   82  A    between atoms: _203  and  _205
REMARK   83  A    between atoms: _205  and  _206
REMARK   84  A    between atoms: _205  and  _208
REMARK   85  A    between atoms: _208  and  _209
REMARK   86  A    between atoms: _214  and  _215
REMARK   87  A    between atoms: _217  and  _219
REMARK   88  A    between atoms: _219  and  _220
REMARK   89  A    between atoms: _219  and  _222
REMARK   90  A    between atoms: _222  and  _223
REMARK   91  A    between atoms: _223  and  _224
REMARK   92  A    between atoms: _223  and  _225
REMARK   93  A    between atoms: _224  and  CA_276
REMARK   94  A    between atoms: _228  and  _230
REMARK   95  A    between atoms: _230  and  _231
REMARK   96  A    between atoms: _230  and  _233
REMARK   97  A    between atoms: _233  and  _234
REMARK   98  A    between atoms: _237  and  _239
REMARK   99  A    between atoms: _239  and  _240
REMARK  100  A    between atoms: _243  and  _245
REMARK  101  A    between atoms: _245  and  _246
REMARK  102  A    between atoms: _245  and  _248
REMARK  103  A    between atoms: _248  and  _249
REMARK  104  A    between atoms: _249  and  _250
REMARK  105  A    between atoms: _250  and  _251
REMARK  106  A    between atoms: _260  and  _262
REMARK  107  A    between atoms: _262  and  _263
REMARK  108  A    between atoms: _262  and  _265
REMARK  109  A    between atoms: _265  and  _266
REMARK  110  A    between atoms: _269  and  _271
REMARK  111  A    between atoms: _271  and  _272
REMARK                            x       y       z     vdW  Elec       q    Type
REMARK                         _______ _______ _______ _____ _____    ______ ____
ROOT
ATOM      1  O   HOH     1     -15.773  13.333  23.577  0.00  0.00    +0.000 OA
ENDROOT
TORSDOF 0
REMARK  Name = ../refined-set-2016/3zdv/3zdv_pocket.pdb
REMARK  111 active torsions:
REMARK  status: ('A' for Active; 'I' for Inactive)
REMARK    1  A    between atoms: _1  and  _3
REMARK    2  A    between atoms: _3  and  _4
REMARK    3  A    between atoms: _7  and  _9
REMARK    4  A    between atoms: _9  and  _10
REMARK    5  A    between atoms: _9  and  _12
REMARK    6  A    between atoms: _10  and  _11
REMARK    7  A    between atoms: _10  and  _18
REMARK    8  A    between atoms: _11  and  CA_276
REMARK    9  A    between atoms: _12  and  _13
REMARK   10  A    between atoms: _18  and  _20
REMARK   11  A    between atoms: _20  and  _21
REMARK   12  A    between atoms: _20  and  _23
REMARK   13  A    between atoms: _23  and  _24
REMARK   14  A    between atoms: _26  and  _28
REMARK   15  A    between atoms: _28  and  _29
REMARK   16  A    between atoms: _28  and  _31
REMARK   17  A    between atoms: _31  and  _32
REMARK   18  A    between atoms: _34  and  _36
REMARK   19  A    between atoms: _36  and  _37
REMARK   20  A    between atoms: _39  and  _41
REMARK   21  A    between atoms: _41  and  _42
REMARK   22  A    between atoms: _41  and  _44
REMARK   23  A    between atoms: _44  and  _45
REMARK   24  A    between atoms: _48  and  _50
REMARK   25  A    between atoms: _50  and  _51
REMARK   26  A    between atoms: _50  and  _53
REMARK   27  A    between atoms: _53  and  _54
REMARK   28  A    between atoms: _54  and  _55
REMARK   29  A    between atoms: _60  and  _62
REMARK   30  A    between atoms: _62  and  _63
REMARK   31  A    between atoms: _62  and  _65
REMARK   32  A    between atoms: _65  and  _66
REMARK   33  A    between atoms: _66  and  _67
REMARK   34  A    between atoms: _72  and  _74
REMARK   35  A    between atoms: _74  and  _75
REMARK   36  A    between atoms: _74  and  _77
REMARK   37  A    between atoms: _77  and  _78
REMARK   38  A    between atoms: _80  and  _82
REMARK   39  A    between atoms: _82  and  _83
REMARK   40  A    between atoms: _82  and  _85
REMARK   41  A    between atoms: _85  and  _86
REMARK   42  A    between atoms: _89  and  _91
REMARK   43  A    between atoms: _91  and  _92
REMARK   44  A    between atoms: _91  and  _94
REMARK   45  A    between atoms: _97  and  _99
REMARK   46  A    between atoms: _99  and  _100
REMARK   47  A    between atoms: _99  and  _102
REMARK   48  A    between atoms: _102  and  _103
REMARK   49  A    between atoms: _108  and  _110
REMARK   50  A    between atoms: _110  and  _111
REMARK   51  A    between atoms: _110  and  _113
REMARK   52  A    between atoms: _113  and  _114
REMARK   53  A    between atoms: _114  and  _115
REMARK   54  A    between atoms: _115  and  _116
REMARK   55  A    between atoms: _125  and  _127
REMARK   56  A    between atoms: _127  and  _128
REMARK   57  A    between atoms: _127  and  _130
REMARK   58  A    between atoms: _130  and  _131
REMARK   59  A    between atoms: _133  and  _135
REMARK   60  A    between atoms: _135  and  _136
REMARK   61  A    between atoms: _135  and  _138
REMARK   62  A    between atoms: _138  and  _139
REMARK   63  A    between atoms: _141  and  _143
REMARK   64  A    between atoms: _143  and  _144
REMARK   65  A    between atoms: _143  and  _146
REMARK   66  A    between atoms: _146  and  _147
REMARK   67  A    between atoms: _147  and  _148
REMARK   68  A    between atoms: _151  and  _153
REMARK   69  A    between atoms: _153  and  _154
REMARK   70  A    between atoms: _153  and  _156
REMARK   71  A    between atoms: _156  and  _157
REMARK   72  A    between atoms: _160  and  _162
REMARK   73  A    between atoms: _162  and  _163
REMARK   74  A    between atoms: _165  and  _167
REMARK   75  A    between atoms: _167  and  _168
REMARK   76  A    between atoms: _167  and  _170
REMARK   77  A    between atoms: _170  and  _171
REMARK   78  A    between atoms: _174  and  _176
REMARK   79  A    between atoms: _185  and  _188
REMARK   80  A    between atoms: _188  and  _189
REMARK   81  A    between atoms: _196  and  _197
REMARK   82  A    between atoms: _203  and  _205
REMARK   83  A    between atoms: _205  and  _206
REMARK   84  A    between atoms: _205  and  _208
REMARK   85  A    between atoms: _208  and  _209
REMARK   86  A    between atoms: _214  and  _215
REMARK   87  A    between atoms: _217  and  _219
REMARK   88  A    between atoms: _219  and  _220
REMARK   89  A    between atoms: _219  and  _222
REMARK   90  A    between atoms: _222  and  _223
REMARK   91  A    between atoms: _223  and  _224
REMARK   92  A    between atoms: _223  and  _225
REMARK   93  A    between atoms: _224  and  CA_276
REMARK   94  A    between atoms: _228  and  _230
REMARK   95  A    between atoms: _230  and  _231
REMARK   96  A    between atoms: _230  and  _233
REMARK   97  A    between atoms: _233  and  _234
REMARK   98  A    between atoms: _237  and  _239
REMARK   99  A    between atoms: _239  and  _240
REMARK  100  A    between atoms: _243  and  _245
REMARK  101  A    between atoms: _245  and  _246
REMARK  102  A    between atoms: _245  and  _248
REMARK  103  A    between atoms: _248  and  _249
REMARK  104  A    between atoms: _249  and  _250
REMARK  105  A    between atoms: _250  and  _251
REMARK  106  A    between atoms: _260  and  _262
REMARK  107  A    between atoms: _262  and  _263
REMARK  108  A    between atoms: _262  and  _265
REMARK  109  A    between atoms: _265  and  _266
REMARK  110  A    between atoms: _269  and  _271
REMARK  111  A    between atoms: _271  and  _272
REMARK                            x       y       z     vdW  Elec       q    Type
REMARK                         _______ _______ _______ _____ _____    ______ ____
ROOT
ATOM      1  O   HOH     1     -13.779  10.715  20.740  0.00  0.00    +0.000 OA
ENDROOT
TORSDOF 0
REMARK  Name = ../refined-set-2016/3zdv/3zdv_pocket.pdb
REMARK  111 active torsions:
REMARK  status: ('A' for Active; 'I' for Inactive)
REMARK    1  A    between atoms: _1  and  _3
REMARK    2  A    between atoms: _3  and  _4
REMARK    3  A    between atoms: _7  and  _9
REMARK    4  A    between atoms: _9  and  _10
REMARK    5  A    between atoms: _9  and  _12
REMARK    6  A    between atoms: _10  and  _11
REMARK    7  A    between atoms: _10  and  _18
REMARK    8  A    between atoms: _11  and  CA_276
REMARK    9  A    between atoms: _12  and  _13
REMARK   10  A    between atoms: _18  and  _20
REMARK   11  A    between atoms: _20  and  _21
REMARK   12  A    between atoms: _20  and  _23
REMARK   13  A    between atoms: _23  and  _24
REMARK   14  A    between atoms: _26  and  _28
REMARK   15  A    between atoms: _28  and  _29
REMARK   16  A    between atoms: _28  and  _31
REMARK   17  A    between atoms: _31  and  _32
REMARK   18  A    between atoms: _34  and  _36
REMARK   19  A    between atoms: _36  and  _37
REMARK   20  A    between atoms: _39  and  _41
REMARK   21  A    between atoms: _41  and  _42
REMARK   22  A    between atoms: _41  and  _44
REMARK   23  A    between atoms: _44  and  _45
REMARK   24  A    between atoms: _48  and  _50
REMARK   25  A    between atoms: _50  and  _51
REMARK   26  A    between atoms: _50  and  _53
REMARK   27  A    between atoms: _53  and  _54
REMARK   28  A    between atoms: _54  and  _55
REMARK   29  A    between atoms: _60  and  _62
REMARK   30  A    between atoms: _62  and  _63
REMARK   31  A    between atoms: _62  and  _65
REMARK   32  A    between atoms: _65  and  _66
REMARK   33  A    between atoms: _66  and  _67
REMARK   34  A    between atoms: _72  and  _74
REMARK   35  A    between atoms: _74  and  _75
REMARK   36  A    between atoms: _74  and  _77
REMARK   37  A    between atoms: _77  and  _78
REMARK   38  A    between atoms: _80  and  _82
REMARK   39  A    between atoms: _82  and  _83
REMARK   40  A    between atoms: _82  and  _85
REMARK   41  A    between atoms: _85  and  _86
REMARK   42  A    between atoms: _89  and  _91
REMARK   43  A    between atoms: _91  and  _92
REMARK   44  A    between atoms: _91  and  _94
REMARK   45  A    between atoms: _97  and  _99
REMARK   46  A    between atoms: _99  and  _100
REMARK   47  A    between atoms: _99  and  _102
REMARK   48  A    between atoms: _102  and  _103
REMARK   49  A    between atoms: _108  and  _110
REMARK   50  A    between atoms: _110  and  _111
REMARK   51  A    between atoms: _110  and  _113
REMARK   52  A    between atoms: _113  and  _114
REMARK   53  A    between atoms: _114  and  _115
REMARK   54  A    between atoms: _115  and  _116
REMARK   55  A    between atoms: _125  and  _127
REMARK   56  A    between atoms: _127  and  _128
REMARK   57  A    between atoms: _127  and  _130
REMARK   58  A    between atoms: _130  and  _131
REMARK   59  A    between atoms: _133  and  _135
REMARK   60  A    between atoms: _135  and  _136
REMARK   61  A    between atoms: _135  and  _138
REMARK   62  A    between atoms: _138  and  _139
REMARK   63  A    between atoms: _141  and  _143
REMARK   64  A    between atoms: _143  and  _144
REMARK   65  A    between atoms: _143  and  _146
REMARK   66  A    between atoms: _146  and  _147
REMARK   67  A    between atoms: _147  and  _148
REMARK   68  A    between atoms: _151  and  _153
REMARK   69  A    between atoms: _153  and  _154
REMARK   70  A    between atoms: _153  and  _156
REMARK   71  A    between atoms: _156  and  _157
REMARK   72  A    between atoms: _160  and  _162
REMARK   73  A    between atoms: _162  and  _163
REMARK   74  A    between atoms: _165  and  _167
REMARK   75  A    between atoms: _167  and  _168
REMARK   76  A    between atoms: _167  and  _170
REMARK   77  A    between atoms: _170  and  _171
REMARK   78  A    between atoms: _174  and  _176
REMARK   79  A    between atoms: _185  and  _188
REMARK   80  A    between atoms: _188  and  _189
REMARK   81  A    between atoms: _196  and  _197
REMARK   82  A    between atoms: _203  and  _205
REMARK   83  A    between atoms: _205  and  _206
REMARK   84  A    between atoms: _205  and  _208
REMARK   85  A    between atoms: _208  and  _209
REMARK   86  A    between atoms: _214  and  _215
REMARK   87  A    between atoms: _217  and  _219
REMARK   88  A    between atoms: _219  and  _220
REMARK   89  A    between atoms: _219  and  _222
REMARK   90  A    between atoms: _222  and  _223
REMARK   91  A    between atoms: _223  and  _224
REMARK   92  A    between atoms: _223  and  _225
REMARK   93  A    between atoms: _224  and  CA_276
REMARK   94  A    between atoms: _228  and  _230
REMARK   95  A    between atoms: _230  and  _231
REMARK   96  A    between atoms: _230  and  _233
REMARK   97  A    between atoms: _233  and  _234
REMARK   98  A    between atoms: _237  and  _239
REMARK   99  A    between atoms: _239  and  _240
REMARK  100  A    between atoms: _243  and  _245
REMARK  101  A    between atoms: _245  and  _246
REMARK  102  A    between atoms: _245  and  _248
REMARK  103  A    between atoms: _248  and  _249
REMARK  104  A    between atoms: _249  and  _250
REMARK  105  A    between atoms: _250  and  _251
REMARK  106  A    between atoms: _260  and  _262
REMARK  107  A    between atoms: _262  and  _263
REMARK  108  A    between atoms: _262  and  _265
REMARK  109  A    between atoms: _265  and  _266
REMARK  110  A    between atoms: _269  and  _271
REMARK  111  A    between atoms: _271  and  _272
REMARK                            x       y       z     vdW  Elec       q    Type
REMARK                         _______ _______ _______ _____ _____    ______ ____
ROOT
ATOM      1  O   HOH     1     -13.623  13.213  16.533  0.00  0.00    +0.000 OA
ENDROOT
TORSDOF 0
REMARK  Name = ../refined-set-2016/3zdv/3zdv_pocket.pdb
REMARK  111 active torsions:
REMARK  status: ('A' for Active; 'I' for Inactive)
REMARK    1  A    between atoms: _1  and  _3
REMARK    2  A    between atoms: _3  and  _4
REMARK    3  A    between atoms: _7  and  _9
REMARK    4  A    between atoms: _9  and  _10
REMARK    5  A    between atoms: _9  and  _12
REMARK    6  A    between atoms: _10  and  _11
REMARK    7  A    between atoms: _10  and  _18
REMARK    8  A    between atoms: _11  and  CA_276
REMARK    9  A    between atoms: _12  and  _13
REMARK   10  A    between atoms: _18  and  _20
REMARK   11  A    between atoms: _20  and  _21
REMARK   12  A    between atoms: _20  and  _23
REMARK   13  A    between atoms: _23  and  _24
REMARK   14  A    between atoms: _26  and  _28
REMARK   15  A    between atoms: _28  and  _29
REMARK   16  A    between atoms: _28  and  _31
REMARK   17  A    between atoms: _31  and  _32
REMARK   18  A    between atoms: _34  and  _36
REMARK   19  A    between atoms: _36  and  _37
REMARK   20  A    between atoms: _39  and  _41
REMARK   21  A    between atoms: _41  and  _42
REMARK   22  A    between atoms: _41  and  _44
REMARK   23  A    between atoms: _44  and  _45
REMARK   24  A    between atoms: _48  and  _50
REMARK   25  A    between atoms: _50  and  _51
REMARK   26  A    between atoms: _50  and  _53
REMARK   27  A    between atoms: _53  and  _54
REMARK   28  A    between atoms: _54  and  _55
REMARK   29  A    between atoms: _60  and  _62
REMARK   30  A    between atoms: _62  and  _63
REMARK   31  A    between atoms: _62  and  _65
REMARK   32  A    between atoms: _65  and  _66
REMARK   33  A    between atoms: _66  and  _67
REMARK   34  A    between atoms: _72  and  _74
REMARK   35  A    between atoms: _74  and  _75
REMARK   36  A    between atoms: _74  and  _77
REMARK   37  A    between atoms: _77  and  _78
REMARK   38  A    between atoms: _80  and  _82
REMARK   39  A    between atoms: _82  and  _83
REMARK   40  A    between atoms: _82  and  _85
REMARK   41  A    between atoms: _85  and  _86
REMARK   42  A    between atoms: _89  and  _91
REMARK   43  A    between atoms: _91  and  _92
REMARK   44  A    between atoms: _91  and  _94
REMARK   45  A    between atoms: _97  and  _99
REMARK   46  A    between atoms: _99  and  _100
REMARK   47  A    between atoms: _99  and  _102
REMARK   48  A    between atoms: _102  and  _103
REMARK   49  A    between atoms: _108  and  _110
REMARK   50  A    between atoms: _110  and  _111
REMARK   51  A    between atoms: _110  and  _113
REMARK   52  A    between atoms: _113  and  _114
REMARK   53  A    between atoms: _114  and  _115
REMARK   54  A    between atoms: _115  and  _116
REMARK   55  A    between atoms: _125  and  _127
REMARK   56  A    between atoms: _127  and  _128
REMARK   57  A    between atoms: _127  and  _130
REMARK   58  A    between atoms: _130  and  _131
REMARK   59  A    between atoms: _133  and  _135
REMARK   60  A    between atoms: _135  and  _136
REMARK   61  A    between atoms: _135  and  _138
REMARK   62  A    between atoms: _138  and  _139
REMARK   63  A    between atoms: _141  and  _143
REMARK   64  A    between atoms: _143  and  _144
REMARK   65  A    between atoms: _143  and  _146
REMARK   66  A    between atoms: _146  and  _147
REMARK   67  A    between atoms: _147  and  _148
REMARK   68  A    between atoms: _151  and  _153
REMARK   69  A    between atoms: _153  and  _154
REMARK   70  A    between atoms: _153  and  _156
REMARK   71  A    between atoms: _156  and  _157
REMARK   72  A    between atoms: _160  and  _162
REMARK   73  A    between atoms: _162  and  _163
REMARK   74  A    between atoms: _165  and  _167
REMARK   75  A    between atoms: _167  and  _168
REMARK   76  A    between atoms: _167  and  _170
REMARK   77  A    between atoms: _170  and  _171
REMARK   78  A    between atoms: _174  and  _176
REMARK   79  A    between atoms: _185  and  _188
REMARK   80  A    between atoms: _188  and  _189
REMARK   81  A    between atoms: _196  and  _197
REMARK   82  A    between atoms: _203  and  _205
REMARK   83  A    between atoms: _205  and  _206
REMARK   84  A    between atoms: _205  and  _208
REMARK   85  A    between atoms: _208  and  _209
REMARK   86  A    between atoms: _214  and  _215
REMARK   87  A    between atoms: _217  and  _219
REMARK   88  A    between atoms: _219  and  _220
REMARK   89  A    between atoms: _219  and  _222
REMARK   90  A    between atoms: _222  and  _223
REMARK   91  A    between atoms: _223  and  _224
REMARK   92  A    between atoms: _223  and  _225
REMARK   93  A    between atoms: _224  and  CA_276
REMARK   94  A    between atoms: _228  and  _230
REMARK   95  A    between atoms: _230  and  _231
REMARK   96  A    between atoms: _230  and  _233
REMARK   97  A    between atoms: _233  and  _234
REMARK   98  A    between atoms: _237  and  _239
REMARK   99  A    between atoms: _239  and  _240
REMARK  100  A    between atoms: _243  and  _245
REMARK  101  A    between atoms: _245  and  _246
REMARK  102  A    between atoms: _245  and  _248
REMARK  103  A    between atoms: _248  and  _249
REMARK  104  A    between atoms: _249  and  _250
REMARK  105  A    between atoms: _250  and  _251
REMARK  106  A    between atoms: _260  and  _262
REMARK  107  A    between atoms: _262  and  _263
REMARK  108  A    between atoms: _262  and  _265
REMARK  109  A    between atoms: _265  and  _266
REMARK  110  A    between atoms: _269  and  _271
REMARK  111  A    between atoms: _271  and  _272
REMARK                            x       y       z     vdW  Elec       q    Type
REMARK                         _______ _______ _______ _____ _____    ______ ____
ROOT
ATOM      1  O   HOH     1     -14.408  13.254  21.313  0.00  0.00    +0.000 OA
ENDROOT
TORSDOF 0
REMARK  Name = ../refined-set-2016/3zdv/3zdv_pocket.pdb
REMARK  111 active torsions:
REMARK  status: ('A' for Active; 'I' for Inactive)
REMARK    1  A    between atoms: _1  and  _3
REMARK    2  A    between atoms: _3  and  _4
REMARK    3  A    between atoms: _7  and  _9
REMARK    4  A    between atoms: _9  and  _10
REMARK    5  A    between atoms: _9  and  _12
REMARK    6  A    between atoms: _10  and  _11
REMARK    7  A    between atoms: _10  and  _18
REMARK    8  A    between atoms: _11  and  CA_276
REMARK    9  A    between atoms: _12  and  _13
REMARK   10  A    between atoms: _18  and  _20
REMARK   11  A    between atoms: _20  and  _21
REMARK   12  A    between atoms: _20  and  _23
REMARK   13  A    between atoms: _23  and  _24
REMARK   14  A    between atoms: _26  and  _28
REMARK   15  A    between atoms: _28  and  _29
REMARK   16  A    between atoms: _28  and  _31
REMARK   17  A    between atoms: _31  and  _32
REMARK   18  A    between atoms: _34  and  _36
REMARK   19  A    between atoms: _36  and  _37
REMARK   20  A    between atoms: _39  and  _41
REMARK   21  A    between atoms: _41  and  _42
REMARK   22  A    between atoms: _41  and  _44
REMARK   23  A    between atoms: _44  and  _45
REMARK   24  A    between atoms: _48  and  _50
REMARK   25  A    between atoms: _50  and  _51
REMARK   26  A    between atoms: _50  and  _53
REMARK   27  A    between atoms: _53  and  _54
REMARK   28  A    between atoms: _54  and  _55
REMARK   29  A    between atoms: _60  and  _62
REMARK   30  A    between atoms: _62  and  _63
REMARK   31  A    between atoms: _62  and  _65
REMARK   32  A    between atoms: _65  and  _66
REMARK   33  A    between atoms: _66  and  _67
REMARK   34  A    between atoms: _72  and  _74
REMARK   35  A    between atoms: _74  and  _75
REMARK   36  A    between atoms: _74  and  _77
REMARK   37  A    between atoms: _77  and  _78
REMARK   38  A    between atoms: _80  and  _82
REMARK   39  A    between atoms: _82  and  _83
REMARK   40  A    between atoms: _82  and  _85
REMARK   41  A    between atoms: _85  and  _86
REMARK   42  A    between atoms: _89  and  _91
REMARK   43  A    between atoms: _91  and  _92
REMARK   44  A    between atoms: _91  and  _94
REMARK   45  A    between atoms: _97  and  _99
REMARK   46  A    between atoms: _99  and  _100
REMARK   47  A    between atoms: _99  and  _102
REMARK   48  A    between atoms: _102  and  _103
REMARK   49  A    between atoms: _108  and  _110
REMARK   50  A    between atoms: _110  and  _111
REMARK   51  A    between atoms: _110  and  _113
REMARK   52  A    between atoms: _113  and  _114
REMARK   53  A    between atoms: _114  and  _115
REMARK   54  A    between atoms: _115  and  _116
REMARK   55  A    between atoms: _125  and  _127
REMARK   56  A    between atoms: _127  and  _128
REMARK   57  A    between atoms: _127  and  _130
REMARK   58  A    between atoms: _130  and  _131
REMARK   59  A    between atoms: _133  and  _135
REMARK   60  A    between atoms: _135  and  _136
REMARK   61  A    between atoms: _135  and  _138
REMARK   62  A    between atoms: _138  and  _139
REMARK   63  A    between atoms: _141  and  _143
REMARK   64  A    between atoms: _143  and  _144
REMARK   65  A    between atoms: _143  and  _146
REMARK   66  A    between atoms: _146  and  _147
REMARK   67  A    between atoms: _147  and  _148
REMARK   68  A    between atoms: _151  and  _153
REMARK   69  A    between atoms: _153  and  _154
REMARK   70  A    between atoms: _153  and  _156
REMARK   71  A    between atoms: _156  and  _157
REMARK   72  A    between atoms: _160  and  _162
REMARK   73  A    between atoms: _162  and  _163
REMARK   74  A    between atoms: _165  and  _167
REMARK   75  A    between atoms: _167  and  _168
REMARK   76  A    between atoms: _167  and  _170
REMARK   77  A    between atoms: _170  and  _171
REMARK   78  A    between atoms: _174  and  _176
REMARK   79  A    between atoms: _185  and  _188
REMARK   80  A    between atoms: _188  and  _189
REMARK   81  A    between atoms: _196  and  _197
REMARK   82  A    between atoms: _203  and  _205
REMARK   83  A    between atoms: _205  and  _206
REMARK   84  A    between atoms: _205  and  _208
REMARK   85  A    between atoms: _208  and  _209
REMARK   86  A    between atoms: _214  and  _215
REMARK   87  A    between atoms: _217  and  _219
REMARK   88  A    between atoms: _219  and  _220
REMARK   89  A    between atoms: _219  and  _222
REMARK   90  A    between atoms: _222  and  _223
REMARK   91  A    between atoms: _223  and  _224
REMARK   92  A    between atoms: _223  and  _225
REMARK   93  A    between atoms: _224  and  CA_276
REMARK   94  A    between atoms: _228  and  _230
REMARK   95  A    between atoms: _230  and  _231
REMARK   96  A    between atoms: _230  and  _233
REMARK   97  A    between atoms: _233  and  _234
REMARK   98  A    between atoms: _237  and  _239
REMARK   99  A    between atoms: _239  and  _240
REMARK  100  A    between atoms: _243  and  _245
REMARK  101  A    between atoms: _245  and  _246
REMARK  102  A    between atoms: _245  and  _248
REMARK  103  A    between atoms: _248  and  _249
REMARK  104  A    between atoms: _249  and  _250
REMARK  105  A    between atoms: _250  and  _251
REMARK  106  A    between atoms: _260  and  _262
REMARK  107  A    between atoms: _262  and  _263
REMARK  108  A    between atoms: _262  and  _265
REMARK  109  A    between atoms: _265  and  _266
REMARK  110  A    between atoms: _269  and  _271
REMARK  111  A    between atoms: _271  and  _272
REMARK                            x       y       z     vdW  Elec       q    Type
REMARK                         _______ _______ _______ _____ _____    ______ ____
ROOT
ATOM      1  O   HOH     1     -14.525  16.849  20.485  0.00  0.00    +0.000 OA
ENDROOT
TORSDOF 0
REMARK  Name = ../refined-set-2016/3zdv/3zdv_pocket.pdb
REMARK  111 active torsions:
REMARK  status: ('A' for Active; 'I' for Inactive)
REMARK    1  A    between atoms: _1  and  _3
REMARK    2  A    between atoms: _3  and  _4
REMARK    3  A    between atoms: _7  and  _9
REMARK    4  A    between atoms: _9  and  _10
REMARK    5  A    between atoms: _9  and  _12
REMARK    6  A    between atoms: _10  and  _11
REMARK    7  A    between atoms: _10  and  _18
REMARK    8  A    between atoms: _11  and  CA_276
REMARK    9  A    between atoms: _12  and  _13
REMARK   10  A    between atoms: _18  and  _20
REMARK   11  A    between atoms: _20  and  _21
REMARK   12  A    between atoms: _20  and  _23
REMARK   13  A    between atoms: _23  and  _24
REMARK   14  A    between atoms: _26  and  _28
REMARK   15  A    between atoms: _28  and  _29
REMARK   16  A    between atoms: _28  and  _31
REMARK   17  A    between atoms: _31  and  _32
REMARK   18  A    between atoms: _34  and  _36
REMARK   19  A    between atoms: _36  and  _37
REMARK   20  A    between atoms: _39  and  _41
REMARK   21  A    between atoms: _41  and  _42
REMARK   22  A    between atoms: _41  and  _44
REMARK   23  A    between atoms: _44  and  _45
REMARK   24  A    between atoms: _48  and  _50
REMARK   25  A    between atoms: _50  and  _51
REMARK   26  A    between atoms: _50  and  _53
REMARK   27  A    between atoms: _53  and  _54
REMARK   28  A    between atoms: _54  and  _55
REMARK   29  A    between atoms: _60  and  _62
REMARK   30  A    between atoms: _62  and  _63
REMARK   31  A    between atoms: _62  and  _65
REMARK   32  A    between atoms: _65  and  _66
REMARK   33  A    between atoms: _66  and  _67
REMARK   34  A    between atoms: _72  and  _74
REMARK   35  A    between atoms: _74  and  _75
REMARK   36  A    between atoms: _74  and  _77
REMARK   37  A    between atoms: _77  and  _78
REMARK   38  A    between atoms: _80  and  _82
REMARK   39  A    between atoms: _82  and  _83
REMARK   40  A    between atoms: _82  and  _85
REMARK   41  A    between atoms: _85  and  _86
REMARK   42  A    between atoms: _89  and  _91
REMARK   43  A    between atoms: _91  and  _92
REMARK   44  A    between atoms: _91  and  _94
REMARK   45  A    between atoms: _97  and  _99
REMARK   46  A    between atoms: _99  and  _100
REMARK   47  A    between atoms: _99  and  _102
REMARK   48  A    between atoms: _102  and  _103
REMARK   49  A    between atoms: _108  and  _110
REMARK   50  A    between atoms: _110  and  _111
REMARK   51  A    between atoms: _110  and  _113
REMARK   52  A    between atoms: _113  and  _114
REMARK   53  A    between atoms: _114  and  _115
REMARK   54  A    between atoms: _115  and  _116
REMARK   55  A    between atoms: _125  and  _127
REMARK   56  A    between atoms: _127  and  _128
REMARK   57  A    between atoms: _127  and  _130
REMARK   58  A    between atoms: _130  and  _131
REMARK   59  A    between atoms: _133  and  _135
REMARK   60  A    between atoms: _135  and  _136
REMARK   61  A    between atoms: _135  and  _138
REMARK   62  A    between atoms: _138  and  _139
REMARK   63  A    between atoms: _141  and  _143
REMARK   64  A    between atoms: _143  and  _144
REMARK   65  A    between atoms: _143  and  _146
REMARK   66  A    between atoms: _146  and  _147
REMARK   67  A    between atoms: _147  and  _148
REMARK   68  A    between atoms: _151  and  _153
REMARK   69  A    between atoms: _153  and  _154
REMARK   70  A    between atoms: _153  and  _156
REMARK   71  A    between atoms: _156  and  _157
REMARK   72  A    between atoms: _160  and  _162
REMARK   73  A    between atoms: _162  and  _163
REMARK   74  A    between atoms: _165  and  _167
REMARK   75  A    between atoms: _167  and  _168
REMARK   76  A    between atoms: _167  and  _170
REMARK   77  A    between atoms: _170  and  _171
REMARK   78  A    between atoms: _174  and  _176
REMARK   79  A    between atoms: _185  and  _188
REMARK   80  A    between atoms: _188  and  _189
REMARK   81  A    between atoms: _196  and  _197
REMARK   82  A    between atoms: _203  and  _205
REMARK   83  A    between atoms: _205  and  _206
REMARK   84  A    between atoms: _205  and  _208
REMARK   85  A    between atoms: _208  and  _209
REMARK   86  A    between atoms: _214  and  _215
REMARK   87  A    between atoms: _217  and  _219
REMARK   88  A    between atoms: _219  and  _220
REMARK   89  A    between atoms: _219  and  _222
REMARK   90  A    between atoms: _222  and  _223
REMARK   91  A    between atoms: _223  and  _224
REMARK   92  A    between atoms: _223  and  _225
REMARK   93  A    between atoms: _224  and  CA_276
REMARK   94  A    between atoms: _228  and  _230
REMARK   95  A    between atoms: _230  and  _231
REMARK   96  A    between atoms: _230  and  _233
REMARK   97  A    between atoms: _233  and  _234
REMARK   98  A    between atoms: _237  and  _239
REMARK   99  A    between atoms: _239  and  _240
REMARK  100  A    between atoms: _243  and  _245
REMARK  101  A    between atoms: _245  and  _246
REMARK  102  A    between atoms: _245  and  _248
REMARK  103  A    between atoms: _248  and  _249
REMARK  104  A    between atoms: _249  and  _250
REMARK  105  A    between atoms: _250  and  _251
REMARK  106  A    between atoms: _260  and  _262
REMARK  107  A    between atoms: _262  and  _263
REMARK  108  A    between atoms: _262  and  _265
REMARK  109  A    between atoms: _265  and  _266
REMARK  110  A    between atoms: _269  and  _271
REMARK  111  A    between atoms: _271  and  _272
REMARK                            x       y       z     vdW  Elec       q    Type
REMARK                         _______ _______ _______ _____ _____    ______ ____
ROOT
ATOM      1  O   HOH     1     -10.994  16.447  13.720  0.00  0.00    +0.000 OA
ENDROOT
TORSDOF 0
REMARK  Name = ../refined-set-2016/3zdv/3zdv_pocket.pdb
REMARK  111 active torsions:
REMARK  status: ('A' for Active; 'I' for Inactive)
REMARK    1  A    between atoms: _1  and  _3
REMARK    2  A    between atoms: _3  and  _4
REMARK    3  A    between atoms: _7  and  _9
REMARK    4  A    between atoms: _9  and  _10
REMARK    5  A    between atoms: _9  and  _12
REMARK    6  A    between atoms: _10  and  _11
REMARK    7  A    between atoms: _10  and  _18
REMARK    8  A    between atoms: _11  and  CA_276
REMARK    9  A    between atoms: _12  and  _13
REMARK   10  A    between atoms: _18  and  _20
REMARK   11  A    between atoms: _20  and  _21
REMARK   12  A    between atoms: _20  and  _23
REMARK   13  A    between atoms: _23  and  _24
REMARK   14  A    between atoms: _26  and  _28
REMARK   15  A    between atoms: _28  and  _29
REMARK   16  A    between atoms: _28  and  _31
REMARK   17  A    between atoms: _31  and  _32
REMARK   18  A    between atoms: _34  and  _36
REMARK   19  A    between atoms: _36  and  _37
REMARK   20  A    between atoms: _39  and  _41
REMARK   21  A    between atoms: _41  and  _42
REMARK   22  A    between atoms: _41  and  _44
REMARK   23  A    between atoms: _44  and  _45
REMARK   24  A    between atoms: _48  and  _50
REMARK   25  A    between atoms: _50  and  _51
REMARK   26  A    between atoms: _50  and  _53
REMARK   27  A    between atoms: _53  and  _54
REMARK   28  A    between atoms: _54  and  _55
REMARK   29  A    between atoms: _60  and  _62
REMARK   30  A    between atoms: _62  and  _63
REMARK   31  A    between atoms: _62  and  _65
REMARK   32  A    between atoms: _65  and  _66
REMARK   33  A    between atoms: _66  and  _67
REMARK   34  A    between atoms: _72  and  _74
REMARK   35  A    between atoms: _74  and  _75
REMARK   36  A    between atoms: _74  and  _77
REMARK   37  A    between atoms: _77  and  _78
REMARK   38  A    between atoms: _80  and  _82
REMARK   39  A    between atoms: _82  and  _83
REMARK   40  A    between atoms: _82  and  _85
REMARK   41  A    between atoms: _85  and  _86
REMARK   42  A    between atoms: _89  and  _91
REMARK   43  A    between atoms: _91  and  _92
REMARK   44  A    between atoms: _91  and  _94
REMARK   45  A    between atoms: _97  and  _99
REMARK   46  A    between atoms: _99  and  _100
REMARK   47  A    between atoms: _99  and  _102
REMARK   48  A    between atoms: _102  and  _103
REMARK   49  A    between atoms: _108  and  _110
REMARK   50  A    between atoms: _110  and  _111
REMARK   51  A    between atoms: _110  and  _113
REMARK   52  A    between atoms: _113  and  _114
REMARK   53  A    between atoms: _114  and  _115
REMARK   54  A    between atoms: _115  and  _116
REMARK   55  A    between atoms: _125  and  _127
REMARK   56  A    between atoms: _127  and  _128
REMARK   57  A    between atoms: _127  and  _130
REMARK   58  A    between atoms: _130  and  _131
REMARK   59  A    between atoms: _133  and  _135
REMARK   60  A    between atoms: _135  and  _136
REMARK   61  A    between atoms: _135  and  _138
REMARK   62  A    between atoms: _138  and  _139
REMARK   63  A    between atoms: _141  and  _143
REMARK   64  A    between atoms: _143  and  _144
REMARK   65  A    between atoms: _143  and  _146
REMARK   66  A    between atoms: _146  and  _147
REMARK   67  A    between atoms: _147  and  _148
REMARK   68  A    between atoms: _151  and  _153
REMARK   69  A    between atoms: _153  and  _154
REMARK   70  A    between atoms: _153  and  _156
REMARK   71  A    between atoms: _156  and  _157
REMARK   72  A    between atoms: _160  and  _162
REMARK   73  A    between atoms: _162  and  _163
REMARK   74  A    between atoms: _165  and  _167
REMARK   75  A    between atoms: _167  and  _168
REMARK   76  A    between atoms: _167  and  _170
REMARK   77  A    between atoms: _170  and  _171
REMARK   78  A    between atoms: _174  and  _176
REMARK   79  A    between atoms: _185  and  _188
REMARK   80  A    between atoms: _188  and  _189
REMARK   81  A    between atoms: _196  and  _197
REMARK   82  A    between atoms: _203  and  _205
REMARK   83  A    between atoms: _205  and  _206
REMARK   84  A    between atoms: _205  and  _208
REMARK   85  A    between atoms: _208  and  _209
REMARK   86  A    between atoms: _214  and  _215
REMARK   87  A    between atoms: _217  and  _219
REMARK   88  A    between atoms: _219  and  _220
REMARK   89  A    between atoms: _219  and  _222
REMARK   90  A    between atoms: _222  and  _223
REMARK   91  A    between atoms: _223  and  _224
REMARK   92  A    between atoms: _223  and  _225
REMARK   93  A    between atoms: _224  and  CA_276
REMARK   94  A    between atoms: _228  and  _230
REMARK   95  A    between atoms: _230  and  _231
REMARK   96  A    between atoms: _230  and  _233
REMARK   97  A    between atoms: _233  and  _234
REMARK   98  A    between atoms: _237  and  _239
REMARK   99  A    between atoms: _239  and  _240
REMARK  100  A    between atoms: _243  and  _245
REMARK  101  A    between atoms: _245  and  _246
REMARK  102  A    between atoms: _245  and  _248
REMARK  103  A    between atoms: _248  and  _249
REMARK  104  A    between atoms: _249  and  _250
REMARK  105  A    between atoms: _250  and  _251
REMARK  106  A    between atoms: _260  and  _262
REMARK  107  A    between atoms: _262  and  _263
REMARK  108  A    between atoms: _262  and  _265
REMARK  109  A    between atoms: _265  and  _266
REMARK  110  A    between atoms: _269  and  _271
REMARK  111  A    between atoms: _271  and  _272
REMARK                            x       y       z     vdW  Elec       q    Type
REMARK                         _______ _______ _______ _____ _____    ______ ____
ROOT
ATOM      1  O   HOH     1      -8.315  18.927  19.537  0.00  0.00    +0.000 OA
ENDROOT
TORSDOF 0
REMARK  Name = ../refined-set-2016/3zdv/3zdv_pocket.pdb
REMARK  111 active torsions:
REMARK  status: ('A' for Active; 'I' for Inactive)
REMARK    1  A    between atoms: _1  and  _3
REMARK    2  A    between atoms: _3  and  _4
REMARK    3  A    between atoms: _7  and  _9
REMARK    4  A    between atoms: _9  and  _10
REMARK    5  A    between atoms: _9  and  _12
REMARK    6  A    between atoms: _10  and  _11
REMARK    7  A    between atoms: _10  and  _18
REMARK    8  A    between atoms: _11  and  CA_276
REMARK    9  A    between atoms: _12  and  _13
REMARK   10  A    between atoms: _18  and  _20
REMARK   11  A    between atoms: _20  and  _21
REMARK   12  A    between atoms: _20  and  _23
REMARK   13  A    between atoms: _23  and  _24
REMARK   14  A    between atoms: _26  and  _28
REMARK   15  A    between atoms: _28  and  _29
REMARK   16  A    between atoms: _28  and  _31
REMARK   17  A    between atoms: _31  and  _32
REMARK   18  A    between atoms: _34  and  _36
REMARK   19  A    between atoms: _36  and  _37
REMARK   20  A    between atoms: _39  and  _41
REMARK   21  A    between atoms: _41  and  _42
REMARK   22  A    between atoms: _41  and  _44
REMARK   23  A    between atoms: _44  and  _45
REMARK   24  A    between atoms: _48  and  _50
REMARK   25  A    between atoms: _50  and  _51
REMARK   26  A    between atoms: _50  and  _53
REMARK   27  A    between atoms: _53  and  _54
REMARK   28  A    between atoms: _54  and  _55
REMARK   29  A    between atoms: _60  and  _62
REMARK   30  A    between atoms: _62  and  _63
REMARK   31  A    between atoms: _62  and  _65
REMARK   32  A    between atoms: _65  and  _66
REMARK   33  A    between atoms: _66  and  _67
REMARK   34  A    between atoms: _72  and  _74
REMARK   35  A    between atoms: _74  and  _75
REMARK   36  A    between atoms: _74  and  _77
REMARK   37  A    between atoms: _77  and  _78
REMARK   38  A    between atoms: _80  and  _82
REMARK   39  A    between atoms: _82  and  _83
REMARK   40  A    between atoms: _82  and  _85
REMARK   41  A    between atoms: _85  and  _86
REMARK   42  A    between atoms: _89  and  _91
REMARK   43  A    between atoms: _91  and  _92
REMARK   44  A    between atoms: _91  and  _94
REMARK   45  A    between atoms: _97  and  _99
REMARK   46  A    between atoms: _99  and  _100
REMARK   47  A    between atoms: _99  and  _102
REMARK   48  A    between atoms: _102  and  _103
REMARK   49  A    between atoms: _108  and  _110
REMARK   50  A    between atoms: _110  and  _111
REMARK   51  A    between atoms: _110  and  _113
REMARK   52  A    between atoms: _113  and  _114
REMARK   53  A    between atoms: _114  and  _115
REMARK   54  A    between atoms: _115  and  _116
REMARK   55  A    between atoms: _125  and  _127
REMARK   56  A    between atoms: _127  and  _128
REMARK   57  A    between atoms: _127  and  _130
REMARK   58  A    between atoms: _130  and  _131
REMARK   59  A    between atoms: _133  and  _135
REMARK   60  A    between atoms: _135  and  _136
REMARK   61  A    between atoms: _135  and  _138
REMARK   62  A    between atoms: _138  and  _139
REMARK   63  A    between atoms: _141  and  _143
REMARK   64  A    between atoms: _143  and  _144
REMARK   65  A    between atoms: _143  and  _146
REMARK   66  A    between atoms: _146  and  _147
REMARK   67  A    between atoms: _147  and  _148
REMARK   68  A    between atoms: _151  and  _153
REMARK   69  A    between atoms: _153  and  _154
REMARK   70  A    between atoms: _153  and  _156
REMARK   71  A    between atoms: _156  and  _157
REMARK   72  A    between atoms: _160  and  _162
REMARK   73  A    between atoms: _162  and  _163
REMARK   74  A    between atoms: _165  and  _167
REMARK   75  A    between atoms: _167  and  _168
REMARK   76  A    between atoms: _167  and  _170
REMARK   77  A    between atoms: _170  and  _171
REMARK   78  A    between atoms: _174  and  _176
REMARK   79  A    between atoms: _185  and  _188
REMARK   80  A    between atoms: _188  and  _189
REMARK   81  A    between atoms: _196  and  _197
REMARK   82  A    between atoms: _203  and  _205
REMARK   83  A    between atoms: _205  and  _206
REMARK   84  A    between atoms: _205  and  _208
REMARK   85  A    between atoms: _208  and  _209
REMARK   86  A    between atoms: _214  and  _215
REMARK   87  A    between atoms: _217  and  _219
REMARK   88  A    between atoms: _219  and  _220
REMARK   89  A    between atoms: _219  and  _222
REMARK   90  A    between atoms: _222  and  _223
REMARK   91  A    between atoms: _223  and  _224
REMARK   92  A    between atoms: _223  and  _225
REMARK   93  A    between atoms: _224  and  CA_276
REMARK   94  A    between atoms: _228  and  _230
REMARK   95  A    between atoms: _230  and  _231
REMARK   96  A    between atoms: _230  and  _233
REMARK   97  A    between atoms: _233  and  _234
REMARK   98  A    between atoms: _237  and  _239
REMARK   99  A    between atoms: _239  and  _240
REMARK  100  A    between atoms: _243  and  _245
REMARK  101  A    between atoms: _245  and  _246
REMARK  102  A    between atoms: _245  and  _248
REMARK  103  A    between atoms: _248  and  _249
REMARK  104  A    between atoms: _249  and  _250
REMARK  105  A    between atoms: _250  and  _251
REMARK  106  A    between atoms: _260  and  _262
REMARK  107  A    between atoms: _262  and  _263
REMARK  108  A    between atoms: _262  and  _265
REMARK  109  A    between atoms: _265  and  _266
REMARK  110  A    between atoms: _269  and  _271
REMARK  111  A    between atoms: _271  and  _272
REMARK                            x       y       z     vdW  Elec       q    Type
REMARK                         _______ _______ _______ _____ _____    ______ ____
ROOT
ATOM      1  O   HOH     1      -7.414  22.430  17.968  0.00  0.00    +0.000 OA
ENDROOT
TORSDOF 0
REMARK  Name = ../refined-set-2016/3zdv/3zdv_pocket.pdb
REMARK  111 active torsions:
REMARK  status: ('A' for Active; 'I' for Inactive)
REMARK    1  A    between atoms: _1  and  _3
REMARK    2  A    between atoms: _3  and  _4
REMARK    3  A    between atoms: _7  and  _9
REMARK    4  A    between atoms: _9  and  _10
REMARK    5  A    between atoms: _9  and  _12
REMARK    6  A    between atoms: _10  and  _11
REMARK    7  A    between atoms: _10  and  _18
REMARK    8  A    between atoms: _11  and  CA_276
REMARK    9  A    between atoms: _12  and  _13
REMARK   10  A    between atoms: _18  and  _20
REMARK   11  A    between atoms: _20  and  _21
REMARK   12  A    between atoms: _20  and  _23
REMARK   13  A    between atoms: _23  and  _24
REMARK   14  A    between atoms: _26  and  _28
REMARK   15  A    between atoms: _28  and  _29
REMARK   16  A    between atoms: _28  and  _31
REMARK   17  A    between atoms: _31  and  _32
REMARK   18  A    between atoms: _34  and  _36
REMARK   19  A    between atoms: _36  and  _37
REMARK   20  A    between atoms: _39  and  _41
REMARK   21  A    between atoms: _41  and  _42
REMARK   22  A    between atoms: _41  and  _44
REMARK   23  A    between atoms: _44  and  _45
REMARK   24  A    between atoms: _48  and  _50
REMARK   25  A    between atoms: _50  and  _51
REMARK   26  A    between atoms: _50  and  _53
REMARK   27  A    between atoms: _53  and  _54
REMARK   28  A    between atoms: _54  and  _55
REMARK   29  A    between atoms: _60  and  _62
REMARK   30  A    between atoms: _62  and  _63
REMARK   31  A    between atoms: _62  and  _65
REMARK   32  A    between atoms: _65  and  _66
REMARK   33  A    between atoms: _66  and  _67
REMARK   34  A    between atoms: _72  and  _74
REMARK   35  A    between atoms: _74  and  _75
REMARK   36  A    between atoms: _74  and  _77
REMARK   37  A    between atoms: _77  and  _78
REMARK   38  A    between atoms: _80  and  _82
REMARK   39  A    between atoms: _82  and  _83
REMARK   40  A    between atoms: _82  and  _85
REMARK   41  A    between atoms: _85  and  _86
REMARK   42  A    between atoms: _89  and  _91
REMARK   43  A    between atoms: _91  and  _92
REMARK   44  A    between atoms: _91  and  _94
REMARK   45  A    between atoms: _97  and  _99
REMARK   46  A    between atoms: _99  and  _100
REMARK   47  A    between atoms: _99  and  _102
REMARK   48  A    between atoms: _102  and  _103
REMARK   49  A    between atoms: _108  and  _110
REMARK   50  A    between atoms: _110  and  _111
REMARK   51  A    between atoms: _110  and  _113
REMARK   52  A    between atoms: _113  and  _114
REMARK   53  A    between atoms: _114  and  _115
REMARK   54  A    between atoms: _115  and  _116
REMARK   55  A    between atoms: _125  and  _127
REMARK   56  A    between atoms: _127  and  _128
REMARK   57  A    between atoms: _127  and  _130
REMARK   58  A    between atoms: _130  and  _131
REMARK   59  A    between atoms: _133  and  _135
REMARK   60  A    between atoms: _135  and  _136
REMARK   61  A    between atoms: _135  and  _138
REMARK   62  A    between atoms: _138  and  _139
REMARK   63  A    between atoms: _141  and  _143
REMARK   64  A    between atoms: _143  and  _144
REMARK   65  A    between atoms: _143  and  _146
REMARK   66  A    between atoms: _146  and  _147
REMARK   67  A    between atoms: _147  and  _148
REMARK   68  A    between atoms: _151  and  _153
REMARK   69  A    between atoms: _153  and  _154
REMARK   70  A    between atoms: _153  and  _156
REMARK   71  A    between atoms: _156  and  _157
REMARK   72  A    between atoms: _160  and  _162
REMARK   73  A    between atoms: _162  and  _163
REMARK   74  A    between atoms: _165  and  _167
REMARK   75  A    between atoms: _167  and  _168
REMARK   76  A    between atoms: _167  and  _170
REMARK   77  A    between atoms: _170  and  _171
REMARK   78  A    between atoms: _174  and  _176
REMARK   79  A    between atoms: _185  and  _188
REMARK   80  A    between atoms: _188  and  _189
REMARK   81  A    between atoms: _196  and  _197
REMARK   82  A    between atoms: _203  and  _205
REMARK   83  A    between atoms: _205  and  _206
REMARK   84  A    between atoms: _205  and  _208
REMARK   85  A    between atoms: _208  and  _209
REMARK   86  A    between atoms: _214  and  _215
REMARK   87  A    between atoms: _217  and  _219
REMARK   88  A    between atoms: _219  and  _220
REMARK   89  A    between atoms: _219  and  _222
REMARK   90  A    between atoms: _222  and  _223
REMARK   91  A    between atoms: _223  and  _224
REMARK   92  A    between atoms: _223  and  _225
REMARK   93  A    between atoms: _224  and  CA_276
REMARK   94  A    between atoms: _228  and  _230
REMARK   95  A    between atoms: _230  and  _231
REMARK   96  A    between atoms: _230  and  _233
REMARK   97  A    between atoms: _233  and  _234
REMARK   98  A    between atoms: _237  and  _239
REMARK   99  A    between atoms: _239  and  _240
REMARK  100  A    between atoms: _243  and  _245
REMARK  101  A    between atoms: _245  and  _246
REMARK  102  A    between atoms: _245  and  _248
REMARK  103  A    between atoms: _248  and  _249
REMARK  104  A    between atoms: _249  and  _250
REMARK  105  A    between atoms: _250  and  _251
REMARK  106  A    between atoms: _260  and  _262
REMARK  107  A    between atoms: _262  and  _263
REMARK  108  A    between atoms: _262  and  _265
REMARK  109  A    between atoms: _265  and  _266
REMARK  110  A    between atoms: _269  and  _271
REMARK  111  A    between atoms: _271  and  _272
REMARK                            x       y       z     vdW  Elec       q    Type
REMARK                         _______ _______ _______ _____ _____    ______ ____
ROOT
ATOM      1  O   HOH     1       0.206  17.167  19.612  0.00  0.00    +0.000 OA
ENDROOT
TORSDOF 0
REMARK  Name = ../refined-set-2016/3zdv/3zdv_pocket.pdb
REMARK  111 active torsions:
REMARK  status: ('A' for Active; 'I' for Inactive)
REMARK    1  A    between atoms: _1  and  _3
REMARK    2  A    between atoms: _3  and  _4
REMARK    3  A    between atoms: _7  and  _9
REMARK    4  A    between atoms: _9  and  _10
REMARK    5  A    between atoms: _9  and  _12
REMARK    6  A    between atoms: _10  and  _11
REMARK    7  A    between atoms: _10  and  _18
REMARK    8  A    between atoms: _11  and  CA_276
REMARK    9  A    between atoms: _12  and  _13
REMARK   10  A    between atoms: _18  and  _20
REMARK   11  A    between atoms: _20  and  _21
REMARK   12  A    between atoms: _20  and  _23
REMARK   13  A    between atoms: _23  and  _24
REMARK   14  A    between atoms: _26  and  _28
REMARK   15  A    between atoms: _28  and  _29
REMARK   16  A    between atoms: _28  and  _31
REMARK   17  A    between atoms: _31  and  _32
REMARK   18  A    between atoms: _34  and  _36
REMARK   19  A    between atoms: _36  and  _37
REMARK   20  A    between atoms: _39  and  _41
REMARK   21  A    between atoms: _41  and  _42
REMARK   22  A    between atoms: _41  and  _44
REMARK   23  A    between atoms: _44  and  _45
REMARK   24  A    between atoms: _48  and  _50
REMARK   25  A    between atoms: _50  and  _51
REMARK   26  A    between atoms: _50  and  _53
REMARK   27  A    between atoms: _53  and  _54
REMARK   28  A    between atoms: _54  and  _55
REMARK   29  A    between atoms: _60  and  _62
REMARK   30  A    between atoms: _62  and  _63
REMARK   31  A    between atoms: _62  and  _65
REMARK   32  A    between atoms: _65  and  _66
REMARK   33  A    between atoms: _66  and  _67
REMARK   34  A    between atoms: _72  and  _74
REMARK   35  A    between atoms: _74  and  _75
REMARK   36  A    between atoms: _74  and  _77
REMARK   37  A    between atoms: _77  and  _78
REMARK   38  A    between atoms: _80  and  _82
REMARK   39  A    between atoms: _82  and  _83
REMARK   40  A    between atoms: _82  and  _85
REMARK   41  A    between atoms: _85  and  _86
REMARK   42  A    between atoms: _89  and  _91
REMARK   43  A    between atoms: _91  and  _92
REMARK   44  A    between atoms: _91  and  _94
REMARK   45  A    between atoms: _97  and  _99
REMARK   46  A    between atoms: _99  and  _100
REMARK   47  A    between atoms: _99  and  _102
REMARK   48  A    between atoms: _102  and  _103
REMARK   49  A    between atoms: _108  and  _110
REMARK   50  A    between atoms: _110  and  _111
REMARK   51  A    between atoms: _110  and  _113
REMARK   52  A    between atoms: _113  and  _114
REMARK   53  A    between atoms: _114  and  _115
REMARK   54  A    between atoms: _115  and  _116
REMARK   55  A    between atoms: _125  and  _127
REMARK   56  A    between atoms: _127  and  _128
REMARK   57  A    between atoms: _127  and  _130
REMARK   58  A    between atoms: _130  and  _131
REMARK   59  A    between atoms: _133  and  _135
REMARK   60  A    between atoms: _135  and  _136
REMARK   61  A    between atoms: _135  and  _138
REMARK   62  A    between atoms: _138  and  _139
REMARK   63  A    between atoms: _141  and  _143
REMARK   64  A    between atoms: _143  and  _144
REMARK   65  A    between atoms: _143  and  _146
REMARK   66  A    between atoms: _146  and  _147
REMARK   67  A    between atoms: _147  and  _148
REMARK   68  A    between atoms: _151  and  _153
REMARK   69  A    between atoms: _153  and  _154
REMARK   70  A    between atoms: _153  and  _156
REMARK   71  A    between atoms: _156  and  _157
REMARK   72  A    between atoms: _160  and  _162
REMARK   73  A    between atoms: _162  and  _163
REMARK   74  A    between atoms: _165  and  _167
REMARK   75  A    between atoms: _167  and  _168
REMARK   76  A    between atoms: _167  and  _170
REMARK   77  A    between atoms: _170  and  _171
REMARK   78  A    between atoms: _174  and  _176
REMARK   79  A    between atoms: _185  and  _188
REMARK   80  A    between atoms: _188  and  _189
REMARK   81  A    between atoms: _196  and  _197
REMARK   82  A    between atoms: _203  and  _205
REMARK   83  A    between atoms: _205  and  _206
REMARK   84  A    between atoms: _205  and  _208
REMARK   85  A    between atoms: _208  and  _209
REMARK   86  A    between atoms: _214  and  _215
REMARK   87  A    between atoms: _217  and  _219
REMARK   88  A    between atoms: _219  and  _220
REMARK   89  A    between atoms: _219  and  _222
REMARK   90  A    between atoms: _222  and  _223
REMARK   91  A    between atoms: _223  and  _224
REMARK   92  A    between atoms: _223  and  _225
REMARK   93  A    between atoms: _224  and  CA_276
REMARK   94  A    between atoms: _228  and  _230
REMARK   95  A    between atoms: _230  and  _231
REMARK   96  A    between atoms: _230  and  _233
REMARK   97  A    between atoms: _233  and  _234
REMARK   98  A    between atoms: _237  and  _239
REMARK   99  A    between atoms: _239  and  _240
REMARK  100  A    between atoms: _243  and  _245
REMARK  101  A    between atoms: _245  and  _246
REMARK  102  A    between atoms: _245  and  _248
REMARK  103  A    between atoms: _248  and  _249
REMARK  104  A    between atoms: _249  and  _250
REMARK  105  A    between atoms: _250  and  _251
REMARK  106  A    between atoms: _260  and  _262
REMARK  107  A    between atoms: _262  and  _263
REMARK  108  A    between atoms: _262  and  _265
REMARK  109  A    between atoms: _265  and  _266
REMARK  110  A    between atoms: _269  and  _271
REMARK  111  A    between atoms: _271  and  _272
REMARK                            x       y       z     vdW  Elec       q    Type
REMARK                         _______ _______ _______ _____ _____    ______ ____
ROOT
ATOM      1  O   HOH     1     -13.055  20.176  20.793  0.00  0.00    +0.000 OA
ENDROOT
TORSDOF 0
REMARK  Name = ../refined-set-2016/3zdv/3zdv_pocket.pdb
REMARK  111 active torsions:
REMARK  status: ('A' for Active; 'I' for Inactive)
REMARK    1  A    between atoms: _1  and  _3
REMARK    2  A    between atoms: _3  and  _4
REMARK    3  A    between atoms: _7  and  _9
REMARK    4  A    between atoms: _9  and  _10
REMARK    5  A    between atoms: _9  and  _12
REMARK    6  A    between atoms: _10  and  _11
REMARK    7  A    between atoms: _10  and  _18
REMARK    8  A    between atoms: _11  and  CA_276
REMARK    9  A    between atoms: _12  and  _13
REMARK   10  A    between atoms: _18  and  _20
REMARK   11  A    between atoms: _20  and  _21
REMARK   12  A    between atoms: _20  and  _23
REMARK   13  A    between atoms: _23  and  _24
REMARK   14  A    between atoms: _26  and  _28
REMARK   15  A    between atoms: _28  and  _29
REMARK   16  A    between atoms: _28  and  _31
REMARK   17  A    between atoms: _31  and  _32
REMARK   18  A    between atoms: _34  and  _36
REMARK   19  A    between atoms: _36  and  _37
REMARK   20  A    between atoms: _39  and  _41
REMARK   21  A    between atoms: _41  and  _42
REMARK   22  A    between atoms: _41  and  _44
REMARK   23  A    between atoms: _44  and  _45
REMARK   24  A    between atoms: _48  and  _50
REMARK   25  A    between atoms: _50  and  _51
REMARK   26  A    between atoms: _50  and  _53
REMARK   27  A    between atoms: _53  and  _54
REMARK   28  A    between atoms: _54  and  _55
REMARK   29  A    between atoms: _60  and  _62
REMARK   30  A    between atoms: _62  and  _63
REMARK   31  A    between atoms: _62  and  _65
REMARK   32  A    between atoms: _65  and  _66
REMARK   33  A    between atoms: _66  and  _67
REMARK   34  A    between atoms: _72  and  _74
REMARK   35  A    between atoms: _74  and  _75
REMARK   36  A    between atoms: _74  and  _77
REMARK   37  A    between atoms: _77  and  _78
REMARK   38  A    between atoms: _80  and  _82
REMARK   39  A    between atoms: _82  and  _83
REMARK   40  A    between atoms: _82  and  _85
REMARK   41  A    between atoms: _85  and  _86
REMARK   42  A    between atoms: _89  and  _91
REMARK   43  A    between atoms: _91  and  _92
REMARK   44  A    between atoms: _91  and  _94
REMARK   45  A    between atoms: _97  and  _99
REMARK   46  A    between atoms: _99  and  _100
REMARK   47  A    between atoms: _99  and  _102
REMARK   48  A    between atoms: _102  and  _103
REMARK   49  A    between atoms: _108  and  _110
REMARK   50  A    between atoms: _110  and  _111
REMARK   51  A    between atoms: _110  and  _113
REMARK   52  A    between atoms: _113  and  _114
REMARK   53  A    between atoms: _114  and  _115
REMARK   54  A    between atoms: _115  and  _116
REMARK   55  A    between atoms: _125  and  _127
REMARK   56  A    between atoms: _127  and  _128
REMARK   57  A    between atoms: _127  and  _130
REMARK   58  A    between atoms: _130  and  _131
REMARK   59  A    between atoms: _133  and  _135
REMARK   60  A    between atoms: _135  and  _136
REMARK   61  A    between atoms: _135  and  _138
REMARK   62  A    between atoms: _138  and  _139
REMARK   63  A    between atoms: _141  and  _143
REMARK   64  A    between atoms: _143  and  _144
REMARK   65  A    between atoms: _143  and  _146
REMARK   66  A    between atoms: _146  and  _147
REMARK   67  A    between atoms: _147  and  _148
REMARK   68  A    between atoms: _151  and  _153
REMARK   69  A    between atoms: _153  and  _154
REMARK   70  A    between atoms: _153  and  _156
REMARK   71  A    between atoms: _156  and  _157
REMARK   72  A    between atoms: _160  and  _162
REMARK   73  A    between atoms: _162  and  _163
REMARK   74  A    between atoms: _165  and  _167
REMARK   75  A    between atoms: _167  and  _168
REMARK   76  A    between atoms: _167  and  _170
REMARK   77  A    between atoms: _170  and  _171
REMARK   78  A    between atoms: _174  and  _176
REMARK   79  A    between atoms: _185  and  _188
REMARK   80  A    between atoms: _188  and  _189
REMARK   81  A    between atoms: _196  and  _197
REMARK   82  A    between atoms: _203  and  _205
REMARK   83  A    between atoms: _205  and  _206
REMARK   84  A    between atoms: _205  and  _208
REMARK   85  A    between atoms: _208  and  _209
REMARK   86  A    between atoms: _214  and  _215
REMARK   87  A    between atoms: _217  and  _219
REMARK   88  A    between atoms: _219  and  _220
REMARK   89  A    between atoms: _219  and  _222
REMARK   90  A    between atoms: _222  and  _223
REMARK   91  A    between atoms: _223  and  _224
REMARK   92  A    between atoms: _223  and  _225
REMARK   93  A    between atoms: _224  and  CA_276
REMARK   94  A    between atoms: _228  and  _230
REMARK   95  A    between atoms: _230  and  _231
REMARK   96  A    between atoms: _230  and  _233
REMARK   97  A    between atoms: _233  and  _234
REMARK   98  A    between atoms: _237  and  _239
REMARK   99  A    between atoms: _239  and  _240
REMARK  100  A    between atoms: _243  and  _245
REMARK  101  A    between atoms: _245  and  _246
REMARK  102  A    between atoms: _245  and  _248
REMARK  103  A    between atoms: _248  and  _249
REMARK  104  A    between atoms: _249  and  _250
REMARK  105  A    between atoms: _250  and  _251
REMARK  106  A    between atoms: _260  and  _262
REMARK  107  A    between atoms: _262  and  _263
REMARK  108  A    between atoms: _262  and  _265
REMARK  109  A    between atoms: _265  and  _266
REMARK  110  A    between atoms: _269  and  _271
REMARK  111  A    between atoms: _271  and  _272
REMARK                            x       y       z     vdW  Elec       q    Type
REMARK                         _______ _______ _______ _____ _____    ______ ____
ROOT
ATOM      1  O   HOH     1       0.111  17.204  14.879  0.00  0.00    +0.000 OA
ENDROOT
TORSDOF 0
REMARK  Name = ../refined-set-2016/3zdv/3zdv_pocket.pdb
REMARK  111 active torsions:
REMARK  status: ('A' for Active; 'I' for Inactive)
REMARK    1  A    between atoms: _1  and  _3
REMARK    2  A    between atoms: _3  and  _4
REMARK    3  A    between atoms: _7  and  _9
REMARK    4  A    between atoms: _9  and  _10
REMARK    5  A    between atoms: _9  and  _12
REMARK    6  A    between atoms: _10  and  _11
REMARK    7  A    between atoms: _10  and  _18
REMARK    8  A    between atoms: _11  and  CA_276
REMARK    9  A    between atoms: _12  and  _13
REMARK   10  A    between atoms: _18  and  _20
REMARK   11  A    between atoms: _20  and  _21
REMARK   12  A    between atoms: _20  and  _23
REMARK   13  A    between atoms: _23  and  _24
REMARK   14  A    between atoms: _26  and  _28
REMARK   15  A    between atoms: _28  and  _29
REMARK   16  A    between atoms: _28  and  _31
REMARK   17  A    between atoms: _31  and  _32
REMARK   18  A    between atoms: _34  and  _36
REMARK   19  A    between atoms: _36  and  _37
REMARK   20  A    between atoms: _39  and  _41
REMARK   21  A    between atoms: _41  and  _42
REMARK   22  A    between atoms: _41  and  _44
REMARK   23  A    between atoms: _44  and  _45
REMARK   24  A    between atoms: _48  and  _50
REMARK   25  A    between atoms: _50  and  _51
REMARK   26  A    between atoms: _50  and  _53
REMARK   27  A    between atoms: _53  and  _54
REMARK   28  A    between atoms: _54  and  _55
REMARK   29  A    between atoms: _60  and  _62
REMARK   30  A    between atoms: _62  and  _63
REMARK   31  A    between atoms: _62  and  _65
REMARK   32  A    between atoms: _65  and  _66
REMARK   33  A    between atoms: _66  and  _67
REMARK   34  A    between atoms: _72  and  _74
REMARK   35  A    between atoms: _74  and  _75
REMARK   36  A    between atoms: _74  and  _77
REMARK   37  A    between atoms: _77  and  _78
REMARK   38  A    between atoms: _80  and  _82
REMARK   39  A    between atoms: _82  and  _83
REMARK   40  A    between atoms: _82  and  _85
REMARK   41  A    between atoms: _85  and  _86
REMARK   42  A    between atoms: _89  and  _91
REMARK   43  A    between atoms: _91  and  _92
REMARK   44  A    between atoms: _91  and  _94
REMARK   45  A    between atoms: _97  and  _99
REMARK   46  A    between atoms: _99  and  _100
REMARK   47  A    between atoms: _99  and  _102
REMARK   48  A    between atoms: _102  and  _103
REMARK   49  A    between atoms: _108  and  _110
REMARK   50  A    between atoms: _110  and  _111
REMARK   51  A    between atoms: _110  and  _113
REMARK   52  A    between atoms: _113  and  _114
REMARK   53  A    between atoms: _114  and  _115
REMARK   54  A    between atoms: _115  and  _116
REMARK   55  A    between atoms: _125  and  _127
REMARK   56  A    between atoms: _127  and  _128
REMARK   57  A    between atoms: _127  and  _130
REMARK   58  A    between atoms: _130  and  _131
REMARK   59  A    between atoms: _133  and  _135
REMARK   60  A    between atoms: _135  and  _136
REMARK   61  A    between atoms: _135  and  _138
REMARK   62  A    between atoms: _138  and  _139
REMARK   63  A    between atoms: _141  and  _143
REMARK   64  A    between atoms: _143  and  _144
REMARK   65  A    between atoms: _143  and  _146
REMARK   66  A    between atoms: _146  and  _147
REMARK   67  A    between atoms: _147  and  _148
REMARK   68  A    between atoms: _151  and  _153
REMARK   69  A    between atoms: _153  and  _154
REMARK   70  A    between atoms: _153  and  _156
REMARK   71  A    between atoms: _156  and  _157
REMARK   72  A    between atoms: _160  and  _162
REMARK   73  A    between atoms: _162  and  _163
REMARK   74  A    between atoms: _165  and  _167
REMARK   75  A    between atoms: _167  and  _168
REMARK   76  A    between atoms: _167  and  _170
REMARK   77  A    between atoms: _170  and  _171
REMARK   78  A    between atoms: _174  and  _176
REMARK   79  A    between atoms: _185  and  _188
REMARK   80  A    between atoms: _188  and  _189
REMARK   81  A    between atoms: _196  and  _197
REMARK   82  A    between atoms: _203  and  _205
REMARK   83  A    between atoms: _205  and  _206
REMARK   84  A    between atoms: _205  and  _208
REMARK   85  A    between atoms: _208  and  _209
REMARK   86  A    between atoms: _214  and  _215
REMARK   87  A    between atoms: _217  and  _219
REMARK   88  A    between atoms: _219  and  _220
REMARK   89  A    between atoms: _219  and  _222
REMARK   90  A    between atoms: _222  and  _223
REMARK   91  A    between atoms: _223  and  _224
REMARK   92  A    between atoms: _223  and  _225
REMARK   93  A    between atoms: _224  and  CA_276
REMARK   94  A    between atoms: _228  and  _230
REMARK   95  A    between atoms: _230  and  _231
REMARK   96  A    between atoms: _230  and  _233
REMARK   97  A    between atoms: _233  and  _234
REMARK   98  A    between atoms: _237  and  _239
REMARK   99  A    between atoms: _239  and  _240
REMARK  100  A    between atoms: _243  and  _245
REMARK  101  A    between atoms: _245  and  _246
REMARK  102  A    between atoms: _245  and  _248
REMARK  103  A    between atoms: _248  and  _249
REMARK  104  A    between atoms: _249  and  _250
REMARK  105  A    between atoms: _250  and  _251
REMARK  106  A    between atoms: _260  and  _262
REMARK  107  A    between atoms: _262  and  _263
REMARK  108  A    between atoms: _262  and  _265
REMARK  109  A    between atoms: _265  and  _266
REMARK  110  A    between atoms: _269  and  _271
REMARK  111  A    between atoms: _271  and  _272
REMARK                            x       y       z     vdW  Elec       q    Type
REMARK                         _______ _______ _______ _____ _____    ______ ____
ROOT
ATOM      1  O   HOH     1      -1.484  18.816  25.636  0.00  0.00    +0.000 OA
ENDROOT
TORSDOF 0
