REMARK  Name = ../refined-set-2016/3hb4/3hb4_pocket.pdb
REMARK  230 active torsions:
REMARK  status: ('A' for Active; 'I' for Inactive)
REMARK    1  A    between atoms: _1  and  _3
REMARK    2  A    between atoms: _3  and  _4
REMARK    3  A    between atoms: _3  and  _6
REMARK    4  A    between atoms: _6  and  _7
REMARK    5  A    between atoms: _9  and  _11
REMARK    6  A    between atoms: _11  and  _12
REMARK    7  A    between atoms: _11  and  _14
REMARK    8  A    between atoms: _14  and  _15
REMARK    9  A    between atoms: _18  and  _20
REMARK   10  A    between atoms: _20  and  _21
REMARK   11  A    between atoms: _20  and  _23
REMARK   12  A    between atoms: _23  and  _24
REMARK   13  A    between atoms: _29  and  _31
REMARK   14  A    between atoms: _31  and  _32
REMARK   15  A    between atoms: _35  and  _37
REMARK   16  A    between atoms: _37  and  _38
REMARK   17  A    between atoms: _40  and  _42
REMARK   18  A    between atoms: _42  and  _43
REMARK   19  A    between atoms: _42  and  _45
REMARK   20  A    between atoms: _45  and  _46
REMARK   21  A    between atoms: _49  and  _51
REMARK   22  A    between atoms: _51  and  _52
REMARK   23  A    between atoms: _54  and  _56
REMARK   24  A    between atoms: _56  and  _57
REMARK   25  A    between atoms: _56  and  _59
REMARK   26  A    between atoms: _59  and  _60
REMARK   27  A    between atoms: _63  and  _65
REMARK   28  A    between atoms: _65  and  _66
REMARK   29  A    between atoms: _65  and  _68
REMARK   30  A    between atoms: _68  and  _69
REMARK   31  A    between atoms: _72  and  _74
REMARK   32  A    between atoms: _74  and  _75
REMARK   33  A    between atoms: _77  and  _79
REMARK   34  A    between atoms: _79  and  _80
REMARK   35  A    between atoms: _79  and  _82
REMARK   36  A    between atoms: _82  and  _83
REMARK   37  A    between atoms: _88  and  _90
REMARK   38  A    between atoms: _90  and  _91
REMARK   39  A    between atoms: _90  and  _93
REMARK   40  A    between atoms: _93  and  _94
REMARK   41  A    between atoms: _97  and  _99
REMARK   42  A    between atoms: _99  and  _100
REMARK   43  A    between atoms: _102  and  _104
REMARK   44  A    between atoms: _104  and  _105
REMARK   45  A    between atoms: _104  and  _107
REMARK   46  A    between atoms: _107  and  _108
REMARK   47  A    between atoms: _110  and  _112
REMARK   48  A    between atoms: _112  and  _113
REMARK   49  A    between atoms: _112  and  _115
REMARK   50  A    between atoms: _118  and  _120
REMARK   51  A    between atoms: _120  and  _121
REMARK   52  A    between atoms: _123  and  _125
REMARK   53  A    between atoms: _125  and  _126
REMARK   54  A    between atoms: _128  and  _130
REMARK   55  A    between atoms: _130  and  _131
REMARK   56  A    between atoms: _130  and  _133
REMARK   57  A    between atoms: _133  and  _134
REMARK   58  A    between atoms: _137  and  _139
REMARK   59  A    between atoms: _139  and  _140
REMARK   60  A    between atoms: _139  and  _142
REMARK   61  A    between atoms: _142  and  _143
REMARK   62  A    between atoms: _143  and  _144
REMARK   63  A    between atoms: _146  and  _148
REMARK   64  A    between atoms: _148  and  _149
REMARK   65  A    between atoms: _151  and  _153
REMARK   66  A    between atoms: _153  and  _154
REMARK   67  A    between atoms: _153  and  _156
REMARK   68  A    between atoms: _156  and  _157
REMARK   69  A    between atoms: _161  and  _162
REMARK   70  A    between atoms: _167  and  _169
REMARK   71  A    between atoms: _169  and  _170
REMARK   72  A    between atoms: _169  and  _172
REMARK   73  A    between atoms: _172  and  _173
REMARK   74  A    between atoms: _179  and  _181
REMARK   75  A    between atoms: _181  and  _182
REMARK   76  A    between atoms: _181  and  _184
REMARK   77  A    between atoms: _184  and  _185
REMARK   78  A    between atoms: _190  and  _192
REMARK   79  A    between atoms: _192  and  _193
REMARK   80  A    between atoms: _192  and  _195
REMARK   81  A    between atoms: _195  and  _196
REMARK   82  A    between atoms: _201  and  _202
REMARK   83  A    between atoms: _204  and  _206
REMARK   84  A    between atoms: _206  and  _207
REMARK   85  A    between atoms: _206  and  _209
REMARK   86  A    between atoms: _211  and  _213
REMARK   87  A    between atoms: _213  and  _214
REMARK   88  A    between atoms: _213  and  _216
REMARK   89  A    between atoms: _216  and  _217
REMARK   90  A    between atoms: _217  and  _218
REMARK   91  A    between atoms: _218  and  _219
REMARK   92  A    between atoms: _219  and  _220
REMARK   93  A    between atoms: _224  and  _226
REMARK   94  A    between atoms: _226  and  _227
REMARK   95  A    between atoms: _226  and  _229
REMARK   96  A    between atoms: _229  and  _230
REMARK   97  A    between atoms: _230  and  _231
REMARK   98  A    between atoms: _234  and  _236
REMARK   99  A    between atoms: _236  and  _237
REMARK  100  A    between atoms: _236  and  _239
REMARK  101  A    between atoms: _241  and  _243
REMARK  102  A    between atoms: _243  and  _244
REMARK  103  A    between atoms: _247  and  _248
REMARK  104  A    between atoms: _253  and  _255
REMARK  105  A    between atoms: _255  and  _256
REMARK  106  A    between atoms: _255  and  _258
REMARK  107  A    between atoms: _261  and  _263
REMARK  108  A    between atoms: _263  and  _264
REMARK  109  A    between atoms: _263  and  _266
REMARK  110  A    between atoms: _266  and  _267
REMARK  111  A    between atoms: _270  and  _272
REMARK  112  A    between atoms: _272  and  _273
REMARK  113  A    between atoms: _276  and  _278
REMARK  114  A    between atoms: _278  and  _279
REMARK  115  A    between atoms: _278  and  _281
REMARK  116  A    between atoms: _281  and  _282
REMARK  117  A    between atoms: _288  and  _290
REMARK  118  A    between atoms: _290  and  _291
REMARK  119  A    between atoms: _290  and  _293
REMARK  120  A    between atoms: _293  and  _294
REMARK  121  A    between atoms: _294  and  _295
REMARK  122  A    between atoms: _297  and  _299
REMARK  123  A    between atoms: _299  and  _300
REMARK  124  A    between atoms: _299  and  _302
REMARK  125  A    between atoms: _302  and  _303
REMARK  126  A    between atoms: _303  and  _304
REMARK  127  A    between atoms: _307  and  _309
REMARK  128  A    between atoms: _309  and  _310
REMARK  129  A    between atoms: _309  and  _312
REMARK  130  A    between atoms: _312  and  _313
REMARK  131  A    between atoms: _313  and  _314
REMARK  132  A    between atoms: _314  and  _315
REMARK  133  A    between atoms: _315  and  _316
REMARK  134  A    between atoms: _320  and  _322
REMARK  135  A    between atoms: _322  and  _323
REMARK  136  A    between atoms: _322  and  _325
REMARK  137  A    between atoms: _328  and  _330
REMARK  138  A    between atoms: _330  and  _331
REMARK  139  A    between atoms: _330  and  _333
REMARK  140  A    between atoms: _333  and  _334
REMARK  141  A    between atoms: _337  and  _339
REMARK  142  A    between atoms: _339  and  _340
REMARK  143  A    between atoms: _339  and  _342
REMARK  144  A    between atoms: _342  and  _343
REMARK  145  A    between atoms: _348  and  _349
REMARK  146  A    between atoms: _351  and  _353
REMARK  147  A    between atoms: _353  and  _354
REMARK  148  A    between atoms: _353  and  _356
REMARK  149  A    between atoms: _356  and  _357
REMARK  150  A    between atoms: _360  and  _362
REMARK  151  A    between atoms: _362  and  _363
REMARK  152  A    between atoms: _362  and  _365
REMARK  153  A    between atoms: _365  and  _366
REMARK  154  A    between atoms: _371  and  _373
REMARK  155  A    between atoms: _373  and  _374
REMARK  156  A    between atoms: _373  and  _376
REMARK  157  A    between atoms: _376  and  _377
REMARK  158  A    between atoms: _379  and  _381
REMARK  159  A    between atoms: _381  and  _382
REMARK  160  A    between atoms: _381  and  _384
REMARK  161  A    between atoms: _384  and  _385
REMARK  162  A    between atoms: _385  and  _386
REMARK  163  A    between atoms: _386  and  _387
REMARK  164  A    between atoms: _387  and  _388
REMARK  165  A    between atoms: _392  and  _394
REMARK  166  A    between atoms: _394  and  _395
REMARK  167  A    between atoms: _394  and  _397
REMARK  168  A    between atoms: _397  and  _398
REMARK  169  A    between atoms: _398  and  _399
REMARK  170  A    between atoms: _404  and  _406
REMARK  171  A    between atoms: _406  and  _407
REMARK  172  A    between atoms: _406  and  _409
REMARK  173  A    between atoms: _412  and  _414
REMARK  174  A    between atoms: _414  and  _415
REMARK  175  A    between atoms: _414  and  _417
REMARK  176  A    between atoms: _417  and  _418
REMARK  177  A    between atoms: _424  and  _426
REMARK  178  A    between atoms: _426  and  _427
REMARK  179  A    between atoms: _430  and  _432
REMARK  180  A    between atoms: _432  and  _433
REMARK  181  A    between atoms: _432  and  _435
REMARK  182  A    between atoms: _435  and  _436
REMARK  183  A    between atoms: _439  and  _441
REMARK  184  A    between atoms: _441  and  _442
REMARK  185  A    between atoms: _441  and  _444
REMARK  186  A    between atoms: _444  and  _445
REMARK  187  A    between atoms: _445  and  _446
REMARK  188  A    between atoms: _446  and  _447
REMARK  189  A    between atoms: _456  and  _458
REMARK  190  A    between atoms: _458  and  _459
REMARK  191  A    between atoms: _458  and  _461
REMARK  192  A    between atoms: _461  and  _462
REMARK  193  A    between atoms: _468  and  _470
REMARK  194  A    between atoms: _470  and  _471
REMARK  195  A    between atoms: _470  and  _473
REMARK  196  A    between atoms: _473  and  _474
REMARK  197  A    between atoms: _477  and  _479
REMARK  198  A    between atoms: _479  and  _480
REMARK  199  A    between atoms: _479  and  _482
REMARK  200  A    between atoms: _482  and  _483
REMARK  201  A    between atoms: _488  and  _489
REMARK  202  A    between atoms: _491  and  _493
REMARK  203  A    between atoms: _493  and  _494
REMARK  204  A    between atoms: _497  and  _499
REMARK  205  A    between atoms: _499  and  _500
REMARK  206  A    between atoms: _499  and  _502
REMARK  207  A    between atoms: _502  and  _503
REMARK  208  A    between atoms: _503  and  _504
REMARK  209  A    between atoms: _506  and  _508
REMARK  210  A    between atoms: _508  and  _509
REMARK  211  A    between atoms: _508  and  _511
REMARK  212  A    between atoms: _511  and  _512
REMARK  213  A    between atoms: _517  and  _519
REMARK  214  A    between atoms: _519  and  _520
REMARK  215  A    between atoms: _519  and  _522
REMARK  216  A    between atoms: _522  and  _523
REMARK  217  A    between atoms: _523  and  _524
REMARK  218  A    between atoms: _524  and  _525
REMARK  219  A    between atoms: _534  and  _536
REMARK  220  A    between atoms: _536  and  _537
REMARK  221  A    between atoms: _536  and  _539
REMARK  222  A    between atoms: _539  and  _540
REMARK  223  A    between atoms: _540  and  _541
REMARK  224  A    between atoms: _544  and  _546
REMARK  225  A    between atoms: _546  and  _547
REMARK  226  A    between atoms: _546  and  _549
REMARK  227  A    between atoms: _552  and  _554
REMARK  228  A    between atoms: _554  and  _555
REMARK  229  A    between atoms: _554  and  _557
REMARK  230  A    between atoms: _557  and  _558
REMARK                            x       y       z     vdW  Elec       q    Type
REMARK                         _______ _______ _______ _____ _____    ______ ____
ROOT
ATOM      1  CA  SER A   1      23.289  -3.408  -3.937  0.00  0.00    +0.163 C 
ENDROOT
BRANCH   1   2
ATOM      2  N   SER A   1      22.922  -4.491  -3.060  0.00  0.00    -0.237 NA
ATOM      3  H   SER A   1      22.041  -4.435  -2.511  0.00  0.00    +0.142 HD
ENDBRANCH   1   2
BRANCH   1   4
ATOM      4  CB  SER A   1      22.690  -2.114  -3.473  0.00  0.00    +0.227 C 
ATOM      5  OG  SER A   1      21.973  -2.060  -2.487  0.00  0.00    -0.287 OA
ENDBRANCH   1   4
BRANCH   1   6
ATOM      6  C   SER A   1      22.893  -3.665  -5.409  0.00  0.00    +0.162 C 
BRANCH   6   7
ATOM      7  O   SER A   1      21.489  -3.674  -5.535  0.00  0.00    -0.380 OA
ATOM      8  H   SER A   1      21.245  -3.839  -6.480  0.00  0.00    +0.211 HD
ENDBRANCH   6   7
ENDBRANCH   1   6
TORSDOF 4
REMARK  Name = ../refined-set-2016/3hb4/3hb4_pocket.pdb
REMARK  230 active torsions:
REMARK  status: ('A' for Active; 'I' for Inactive)
REMARK    1  A    between atoms: _1  and  _3
REMARK    2  A    between atoms: _3  and  _4
REMARK    3  A    between atoms: _3  and  _6
REMARK    4  A    between atoms: _6  and  _7
REMARK    5  A    between atoms: _9  and  _11
REMARK    6  A    between atoms: _11  and  _12
REMARK    7  A    between atoms: _11  and  _14
REMARK    8  A    between atoms: _14  and  _15
REMARK    9  A    between atoms: _18  and  _20
REMARK   10  A    between atoms: _20  and  _21
REMARK   11  A    between atoms: _20  and  _23
REMARK   12  A    between atoms: _23  and  _24
REMARK   13  A    between atoms: _29  and  _31
REMARK   14  A    between atoms: _31  and  _32
REMARK   15  A    between atoms: _35  and  _37
REMARK   16  A    between atoms: _37  and  _38
REMARK   17  A    between atoms: _40  and  _42
REMARK   18  A    between atoms: _42  and  _43
REMARK   19  A    between atoms: _42  and  _45
REMARK   20  A    between atoms: _45  and  _46
REMARK   21  A    between atoms: _49  and  _51
REMARK   22  A    between atoms: _51  and  _52
REMARK   23  A    between atoms: _54  and  _56
REMARK   24  A    between atoms: _56  and  _57
REMARK   25  A    between atoms: _56  and  _59
REMARK   26  A    between atoms: _59  and  _60
REMARK   27  A    between atoms: _63  and  _65
REMARK   28  A    between atoms: _65  and  _66
REMARK   29  A    between atoms: _65  and  _68
REMARK   30  A    between atoms: _68  and  _69
REMARK   31  A    between atoms: _72  and  _74
REMARK   32  A    between atoms: _74  and  _75
REMARK   33  A    between atoms: _77  and  _79
REMARK   34  A    between atoms: _79  and  _80
REMARK   35  A    between atoms: _79  and  _82
REMARK   36  A    between atoms: _82  and  _83
REMARK   37  A    between atoms: _88  and  _90
REMARK   38  A    between atoms: _90  and  _91
REMARK   39  A    between atoms: _90  and  _93
REMARK   40  A    between atoms: _93  and  _94
REMARK   41  A    between atoms: _97  and  _99
REMARK   42  A    between atoms: _99  and  _100
REMARK   43  A    between atoms: _102  and  _104
REMARK   44  A    between atoms: _104  and  _105
REMARK   45  A    between atoms: _104  and  _107
REMARK   46  A    between atoms: _107  and  _108
REMARK   47  A    between atoms: _110  and  _112
REMARK   48  A    between atoms: _112  and  _113
REMARK   49  A    between atoms: _112  and  _115
REMARK   50  A    between atoms: _118  and  _120
REMARK   51  A    between atoms: _120  and  _121
REMARK   52  A    between atoms: _123  and  _125
REMARK   53  A    between atoms: _125  and  _126
REMARK   54  A    between atoms: _128  and  _130
REMARK   55  A    between atoms: _130  and  _131
REMARK   56  A    between atoms: _130  and  _133
REMARK   57  A    between atoms: _133  and  _134
REMARK   58  A    between atoms: _137  and  _139
REMARK   59  A    between atoms: _139  and  _140
REMARK   60  A    between atoms: _139  and  _142
REMARK   61  A    between atoms: _142  and  _143
REMARK   62  A    between atoms: _143  and  _144
REMARK   63  A    between atoms: _146  and  _148
REMARK   64  A    between atoms: _148  and  _149
REMARK   65  A    between atoms: _151  and  _153
REMARK   66  A    between atoms: _153  and  _154
REMARK   67  A    between atoms: _153  and  _156
REMARK   68  A    between atoms: _156  and  _157
REMARK   69  A    between atoms: _161  and  _162
REMARK   70  A    between atoms: _167  and  _169
REMARK   71  A    between atoms: _169  and  _170
REMARK   72  A    between atoms: _169  and  _172
REMARK   73  A    between atoms: _172  and  _173
REMARK   74  A    between atoms: _179  and  _181
REMARK   75  A    between atoms: _181  and  _182
REMARK   76  A    between atoms: _181  and  _184
REMARK   77  A    between atoms: _184  and  _185
REMARK   78  A    between atoms: _190  and  _192
REMARK   79  A    between atoms: _192  and  _193
REMARK   80  A    between atoms: _192  and  _195
REMARK   81  A    between atoms: _195  and  _196
REMARK   82  A    between atoms: _201  and  _202
REMARK   83  A    between atoms: _204  and  _206
REMARK   84  A    between atoms: _206  and  _207
REMARK   85  A    between atoms: _206  and  _209
REMARK   86  A    between atoms: _211  and  _213
REMARK   87  A    between atoms: _213  and  _214
REMARK   88  A    between atoms: _213  and  _216
REMARK   89  A    between atoms: _216  and  _217
REMARK   90  A    between atoms: _217  and  _218
REMARK   91  A    between atoms: _218  and  _219
REMARK   92  A    between atoms: _219  and  _220
REMARK   93  A    between atoms: _224  and  _226
REMARK   94  A    between atoms: _226  and  _227
REMARK   95  A    between atoms: _226  and  _229
REMARK   96  A    between atoms: _229  and  _230
REMARK   97  A    between atoms: _230  and  _231
REMARK   98  A    between atoms: _234  and  _236
REMARK   99  A    between atoms: _236  and  _237
REMARK  100  A    between atoms: _236  and  _239
REMARK  101  A    between atoms: _241  and  _243
REMARK  102  A    between atoms: _243  and  _244
REMARK  103  A    between atoms: _247  and  _248
REMARK  104  A    between atoms: _253  and  _255
REMARK  105  A    between atoms: _255  and  _256
REMARK  106  A    between atoms: _255  and  _258
REMARK  107  A    between atoms: _261  and  _263
REMARK  108  A    between atoms: _263  and  _264
REMARK  109  A    between atoms: _263  and  _266
REMARK  110  A    between atoms: _266  and  _267
REMARK  111  A    between atoms: _270  and  _272
REMARK  112  A    between atoms: _272  and  _273
REMARK  113  A    between atoms: _276  and  _278
REMARK  114  A    between atoms: _278  and  _279
REMARK  115  A    between atoms: _278  and  _281
REMARK  116  A    between atoms: _281  and  _282
REMARK  117  A    between atoms: _288  and  _290
REMARK  118  A    between atoms: _290  and  _291
REMARK  119  A    between atoms: _290  and  _293
REMARK  120  A    between atoms: _293  and  _294
REMARK  121  A    between atoms: _294  and  _295
REMARK  122  A    between atoms: _297  and  _299
REMARK  123  A    between atoms: _299  and  _300
REMARK  124  A    between atoms: _299  and  _302
REMARK  125  A    between atoms: _302  and  _303
REMARK  126  A    between atoms: _303  and  _304
REMARK  127  A    between atoms: _307  and  _309
REMARK  128  A    between atoms: _309  and  _310
REMARK  129  A    between atoms: _309  and  _312
REMARK  130  A    between atoms: _312  and  _313
REMARK  131  A    between atoms: _313  and  _314
REMARK  132  A    between atoms: _314  and  _315
REMARK  133  A    between atoms: _315  and  _316
REMARK  134  A    between atoms: _320  and  _322
REMARK  135  A    between atoms: _322  and  _323
REMARK  136  A    between atoms: _322  and  _325
REMARK  137  A    between atoms: _328  and  _330
REMARK  138  A    between atoms: _330  and  _331
REMARK  139  A    between atoms: _330  and  _333
REMARK  140  A    between atoms: _333  and  _334
REMARK  141  A    between atoms: _337  and  _339
REMARK  142  A    between atoms: _339  and  _340
REMARK  143  A    between atoms: _339  and  _342
REMARK  144  A    between atoms: _342  and  _343
REMARK  145  A    between atoms: _348  and  _349
REMARK  146  A    between atoms: _351  and  _353
REMARK  147  A    between atoms: _353  and  _354
REMARK  148  A    between atoms: _353  and  _356
REMARK  149  A    between atoms: _356  and  _357
REMARK  150  A    between atoms: _360  and  _362
REMARK  151  A    between atoms: _362  and  _363
REMARK  152  A    between atoms: _362  and  _365
REMARK  153  A    between atoms: _365  and  _366
REMARK  154  A    between atoms: _371  and  _373
REMARK  155  A    between atoms: _373  and  _374
REMARK  156  A    between atoms: _373  and  _376
REMARK  157  A    between atoms: _376  and  _377
REMARK  158  A    between atoms: _379  and  _381
REMARK  159  A    between atoms: _381  and  _382
REMARK  160  A    between atoms: _381  and  _384
REMARK  161  A    between atoms: _384  and  _385
REMARK  162  A    between atoms: _385  and  _386
REMARK  163  A    between atoms: _386  and  _387
REMARK  164  A    between atoms: _387  and  _388
REMARK  165  A    between atoms: _392  and  _394
REMARK  166  A    between atoms: _394  and  _395
REMARK  167  A    between atoms: _394  and  _397
REMARK  168  A    between atoms: _397  and  _398
REMARK  169  A    between atoms: _398  and  _399
REMARK  170  A    between atoms: _404  and  _406
REMARK  171  A    between atoms: _406  and  _407
REMARK  172  A    between atoms: _406  and  _409
REMARK  173  A    between atoms: _412  and  _414
REMARK  174  A    between atoms: _414  and  _415
REMARK  175  A    between atoms: _414  and  _417
REMARK  176  A    between atoms: _417  and  _418
REMARK  177  A    between atoms: _424  and  _426
REMARK  178  A    between atoms: _426  and  _427
REMARK  179  A    between atoms: _430  and  _432
REMARK  180  A    between atoms: _432  and  _433
REMARK  181  A    between atoms: _432  and  _435
REMARK  182  A    between atoms: _435  and  _436
REMARK  183  A    between atoms: _439  and  _441
REMARK  184  A    between atoms: _441  and  _442
REMARK  185  A    between atoms: _441  and  _444
REMARK  186  A    between atoms: _444  and  _445
REMARK  187  A    between atoms: _445  and  _446
REMARK  188  A    between atoms: _446  and  _447
REMARK  189  A    between atoms: _456  and  _458
REMARK  190  A    between atoms: _458  and  _459
REMARK  191  A    between atoms: _458  and  _461
REMARK  192  A    between atoms: _461  and  _462
REMARK  193  A    between atoms: _468  and  _470
REMARK  194  A    between atoms: _470  and  _471
REMARK  195  A    between atoms: _470  and  _473
REMARK  196  A    between atoms: _473  and  _474
REMARK  197  A    between atoms: _477  and  _479
REMARK  198  A    between atoms: _479  and  _480
REMARK  199  A    between atoms: _479  and  _482
REMARK  200  A    between atoms: _482  and  _483
REMARK  201  A    between atoms: _488  and  _489
REMARK  202  A    between atoms: _491  and  _493
REMARK  203  A    between atoms: _493  and  _494
REMARK  204  A    between atoms: _497  and  _499
REMARK  205  A    between atoms: _499  and  _500
REMARK  206  A    between atoms: _499  and  _502
REMARK  207  A    between atoms: _502  and  _503
REMARK  208  A    between atoms: _503  and  _504
REMARK  209  A    between atoms: _506  and  _508
REMARK  210  A    between atoms: _508  and  _509
REMARK  211  A    between atoms: _508  and  _511
REMARK  212  A    between atoms: _511  and  _512
REMARK  213  A    between atoms: _517  and  _519
REMARK  214  A    between atoms: _519  and  _520
REMARK  215  A    between atoms: _519  and  _522
REMARK  216  A    between atoms: _522  and  _523
REMARK  217  A    between atoms: _523  and  _524
REMARK  218  A    between atoms: _524  and  _525
REMARK  219  A    between atoms: _534  and  _536
REMARK  220  A    between atoms: _536  and  _537
REMARK  221  A    between atoms: _536  and  _539
REMARK  222  A    between atoms: _539  and  _540
REMARK  223  A    between atoms: _540  and  _541
REMARK  224  A    between atoms: _544  and  _546
REMARK  225  A    between atoms: _546  and  _547
REMARK  226  A    between atoms: _546  and  _549
REMARK  227  A    between atoms: _552  and  _554
REMARK  228  A    between atoms: _554  and  _555
REMARK  229  A    between atoms: _554  and  _557
REMARK  230  A    between atoms: _557  and  _558
REMARK                            x       y       z     vdW  Elec       q    Type
REMARK                         _______ _______ _______ _____ _____    ______ ____
ROOT
ATOM      1  CA  ILE A   1      21.571   2.515  -1.268  0.00  0.00    +0.133 C 
ENDROOT
BRANCH   1   2
ATOM      2  N   ILE A   1      21.556   1.697  -2.475  0.00  0.00    -0.239 NA
ATOM      3  H   ILE A   1      20.687   1.661  -3.045  0.00  0.00    +0.142 HD
ENDBRANCH   1   2
BRANCH   1   4
ATOM      4  C   ILE A   1      21.984   1.699  -0.067  0.00  0.00    +0.224 C 
ATOM      5  O   ILE A   1      22.787   2.187   0.776  0.00  0.00    -0.287 OA
ENDBRANCH   1   4
BRANCH   1   6
ATOM      6  CB  ILE A   1      20.194   3.225  -0.986  0.00  0.00    +0.023 C 
ATOM      7  CG2 ILE A   1      20.221   3.822   0.443  0.00  0.00    +0.002 C 
BRANCH   6   8
ATOM      8  CG1 ILE A   1      19.962   4.323  -2.024  0.00  0.00    +0.002 C 
ATOM      9  CD1 ILE A   1      18.486   4.585  -2.374  0.00  0.00    +0.000 C 
ENDBRANCH   6   8
ENDBRANCH   1   6
TORSDOF 4
REMARK  Name = ../refined-set-2016/3hb4/3hb4_pocket.pdb
REMARK  230 active torsions:
REMARK  status: ('A' for Active; 'I' for Inactive)
REMARK    1  A    between atoms: _1  and  _3
REMARK    2  A    between atoms: _3  and  _4
REMARK    3  A    between atoms: _3  and  _6
REMARK    4  A    between atoms: _6  and  _7
REMARK    5  A    between atoms: _9  and  _11
REMARK    6  A    between atoms: _11  and  _12
REMARK    7  A    between atoms: _11  and  _14
REMARK    8  A    between atoms: _14  and  _15
REMARK    9  A    between atoms: _18  and  _20
REMARK   10  A    between atoms: _20  and  _21
REMARK   11  A    between atoms: _20  and  _23
REMARK   12  A    between atoms: _23  and  _24
REMARK   13  A    between atoms: _29  and  _31
REMARK   14  A    between atoms: _31  and  _32
REMARK   15  A    between atoms: _35  and  _37
REMARK   16  A    between atoms: _37  and  _38
REMARK   17  A    between atoms: _40  and  _42
REMARK   18  A    between atoms: _42  and  _43
REMARK   19  A    between atoms: _42  and  _45
REMARK   20  A    between atoms: _45  and  _46
REMARK   21  A    between atoms: _49  and  _51
REMARK   22  A    between atoms: _51  and  _52
REMARK   23  A    between atoms: _54  and  _56
REMARK   24  A    between atoms: _56  and  _57
REMARK   25  A    between atoms: _56  and  _59
REMARK   26  A    between atoms: _59  and  _60
REMARK   27  A    between atoms: _63  and  _65
REMARK   28  A    between atoms: _65  and  _66
REMARK   29  A    between atoms: _65  and  _68
REMARK   30  A    between atoms: _68  and  _69
REMARK   31  A    between atoms: _72  and  _74
REMARK   32  A    between atoms: _74  and  _75
REMARK   33  A    between atoms: _77  and  _79
REMARK   34  A    between atoms: _79  and  _80
REMARK   35  A    between atoms: _79  and  _82
REMARK   36  A    between atoms: _82  and  _83
REMARK   37  A    between atoms: _88  and  _90
REMARK   38  A    between atoms: _90  and  _91
REMARK   39  A    between atoms: _90  and  _93
REMARK   40  A    between atoms: _93  and  _94
REMARK   41  A    between atoms: _97  and  _99
REMARK   42  A    between atoms: _99  and  _100
REMARK   43  A    between atoms: _102  and  _104
REMARK   44  A    between atoms: _104  and  _105
REMARK   45  A    between atoms: _104  and  _107
REMARK   46  A    between atoms: _107  and  _108
REMARK   47  A    between atoms: _110  and  _112
REMARK   48  A    between atoms: _112  and  _113
REMARK   49  A    between atoms: _112  and  _115
REMARK   50  A    between atoms: _118  and  _120
REMARK   51  A    between atoms: _120  and  _121
REMARK   52  A    between atoms: _123  and  _125
REMARK   53  A    between atoms: _125  and  _126
REMARK   54  A    between atoms: _128  and  _130
REMARK   55  A    between atoms: _130  and  _131
REMARK   56  A    between atoms: _130  and  _133
REMARK   57  A    between atoms: _133  and  _134
REMARK   58  A    between atoms: _137  and  _139
REMARK   59  A    between atoms: _139  and  _140
REMARK   60  A    between atoms: _139  and  _142
REMARK   61  A    between atoms: _142  and  _143
REMARK   62  A    between atoms: _143  and  _144
REMARK   63  A    between atoms: _146  and  _148
REMARK   64  A    between atoms: _148  and  _149
REMARK   65  A    between atoms: _151  and  _153
REMARK   66  A    between atoms: _153  and  _154
REMARK   67  A    between atoms: _153  and  _156
REMARK   68  A    between atoms: _156  and  _157
REMARK   69  A    between atoms: _161  and  _162
REMARK   70  A    between atoms: _167  and  _169
REMARK   71  A    between atoms: _169  and  _170
REMARK   72  A    between atoms: _169  and  _172
REMARK   73  A    between atoms: _172  and  _173
REMARK   74  A    between atoms: _179  and  _181
REMARK   75  A    between atoms: _181  and  _182
REMARK   76  A    between atoms: _181  and  _184
REMARK   77  A    between atoms: _184  and  _185
REMARK   78  A    between atoms: _190  and  _192
REMARK   79  A    between atoms: _192  and  _193
REMARK   80  A    between atoms: _192  and  _195
REMARK   81  A    between atoms: _195  and  _196
REMARK   82  A    between atoms: _201  and  _202
REMARK   83  A    between atoms: _204  and  _206
REMARK   84  A    between atoms: _206  and  _207
REMARK   85  A    between atoms: _206  and  _209
REMARK   86  A    between atoms: _211  and  _213
REMARK   87  A    between atoms: _213  and  _214
REMARK   88  A    between atoms: _213  and  _216
REMARK   89  A    between atoms: _216  and  _217
REMARK   90  A    between atoms: _217  and  _218
REMARK   91  A    between atoms: _218  and  _219
REMARK   92  A    between atoms: _219  and  _220
REMARK   93  A    between atoms: _224  and  _226
REMARK   94  A    between atoms: _226  and  _227
REMARK   95  A    between atoms: _226  and  _229
REMARK   96  A    between atoms: _229  and  _230
REMARK   97  A    between atoms: _230  and  _231
REMARK   98  A    between atoms: _234  and  _236
REMARK   99  A    between atoms: _236  and  _237
REMARK  100  A    between atoms: _236  and  _239
REMARK  101  A    between atoms: _241  and  _243
REMARK  102  A    between atoms: _243  and  _244
REMARK  103  A    between atoms: _247  and  _248
REMARK  104  A    between atoms: _253  and  _255
REMARK  105  A    between atoms: _255  and  _256
REMARK  106  A    between atoms: _255  and  _258
REMARK  107  A    between atoms: _261  and  _263
REMARK  108  A    between atoms: _263  and  _264
REMARK  109  A    between atoms: _263  and  _266
REMARK  110  A    between atoms: _266  and  _267
REMARK  111  A    between atoms: _270  and  _272
REMARK  112  A    between atoms: _272  and  _273
REMARK  113  A    between atoms: _276  and  _278
REMARK  114  A    between atoms: _278  and  _279
REMARK  115  A    between atoms: _278  and  _281
REMARK  116  A    between atoms: _281  and  _282
REMARK  117  A    between atoms: _288  and  _290
REMARK  118  A    between atoms: _290  and  _291
REMARK  119  A    between atoms: _290  and  _293
REMARK  120  A    between atoms: _293  and  _294
REMARK  121  A    between atoms: _294  and  _295
REMARK  122  A    between atoms: _297  and  _299
REMARK  123  A    between atoms: _299  and  _300
REMARK  124  A    between atoms: _299  and  _302
REMARK  125  A    between atoms: _302  and  _303
REMARK  126  A    between atoms: _303  and  _304
REMARK  127  A    between atoms: _307  and  _309
REMARK  128  A    between atoms: _309  and  _310
REMARK  129  A    between atoms: _309  and  _312
REMARK  130  A    between atoms: _312  and  _313
REMARK  131  A    between atoms: _313  and  _314
REMARK  132  A    between atoms: _314  and  _315
REMARK  133  A    between atoms: _315  and  _316
REMARK  134  A    between atoms: _320  and  _322
REMARK  135  A    between atoms: _322  and  _323
REMARK  136  A    between atoms: _322  and  _325
REMARK  137  A    between atoms: _328  and  _330
REMARK  138  A    between atoms: _330  and  _331
REMARK  139  A    between atoms: _330  and  _333
REMARK  140  A    between atoms: _333  and  _334
REMARK  141  A    between atoms: _337  and  _339
REMARK  142  A    between atoms: _339  and  _340
REMARK  143  A    between atoms: _339  and  _342
REMARK  144  A    between atoms: _342  and  _343
REMARK  145  A    between atoms: _348  and  _349
REMARK  146  A    between atoms: _351  and  _353
REMARK  147  A    between atoms: _353  and  _354
REMARK  148  A    between atoms: _353  and  _356
REMARK  149  A    between atoms: _356  and  _357
REMARK  150  A    between atoms: _360  and  _362
REMARK  151  A    between atoms: _362  and  _363
REMARK  152  A    between atoms: _362  and  _365
REMARK  153  A    between atoms: _365  and  _366
REMARK  154  A    between atoms: _371  and  _373
REMARK  155  A    between atoms: _373  and  _374
REMARK  156  A    between atoms: _373  and  _376
REMARK  157  A    between atoms: _376  and  _377
REMARK  158  A    between atoms: _379  and  _381
REMARK  159  A    between atoms: _381  and  _382
REMARK  160  A    between atoms: _381  and  _384
REMARK  161  A    between atoms: _384  and  _385
REMARK  162  A    between atoms: _385  and  _386
REMARK  163  A    between atoms: _386  and  _387
REMARK  164  A    between atoms: _387  and  _388
REMARK  165  A    between atoms: _392  and  _394
REMARK  166  A    between atoms: _394  and  _395
REMARK  167  A    between atoms: _394  and  _397
REMARK  168  A    between atoms: _397  and  _398
REMARK  169  A    between atoms: _398  and  _399
REMARK  170  A    between atoms: _404  and  _406
REMARK  171  A    between atoms: _406  and  _407
REMARK  172  A    between atoms: _406  and  _409
REMARK  173  A    between atoms: _412  and  _414
REMARK  174  A    between atoms: _414  and  _415
REMARK  175  A    between atoms: _414  and  _417
REMARK  176  A    between atoms: _417  and  _418
REMARK  177  A    between atoms: _424  and  _426
REMARK  178  A    between atoms: _426  and  _427
REMARK  179  A    between atoms: _430  and  _432
REMARK  180  A    between atoms: _432  and  _433
REMARK  181  A    between atoms: _432  and  _435
REMARK  182  A    between atoms: _435  and  _436
REMARK  183  A    between atoms: _439  and  _441
REMARK  184  A    between atoms: _441  and  _442
REMARK  185  A    between atoms: _441  and  _444
REMARK  186  A    between atoms: _444  and  _445
REMARK  187  A    between atoms: _445  and  _446
REMARK  188  A    between atoms: _446  and  _447
REMARK  189  A    between atoms: _456  and  _458
REMARK  190  A    between atoms: _458  and  _459
REMARK  191  A    between atoms: _458  and  _461
REMARK  192  A    between atoms: _461  and  _462
REMARK  193  A    between atoms: _468  and  _470
REMARK  194  A    between atoms: _470  and  _471
REMARK  195  A    between atoms: _470  and  _473
REMARK  196  A    between atoms: _473  and  _474
REMARK  197  A    between atoms: _477  and  _479
REMARK  198  A    between atoms: _479  and  _480
REMARK  199  A    between atoms: _479  and  _482
REMARK  200  A    between atoms: _482  and  _483
REMARK  201  A    between atoms: _488  and  _489
REMARK  202  A    between atoms: _491  and  _493
REMARK  203  A    between atoms: _493  and  _494
REMARK  204  A    between atoms: _497  and  _499
REMARK  205  A    between atoms: _499  and  _500
REMARK  206  A    between atoms: _499  and  _502
REMARK  207  A    between atoms: _502  and  _503
REMARK  208  A    between atoms: _503  and  _504
REMARK  209  A    between atoms: _506  and  _508
REMARK  210  A    between atoms: _508  and  _509
REMARK  211  A    between atoms: _508  and  _511
REMARK  212  A    between atoms: _511  and  _512
REMARK  213  A    between atoms: _517  and  _519
REMARK  214  A    between atoms: _519  and  _520
REMARK  215  A    between atoms: _519  and  _522
REMARK  216  A    between atoms: _522  and  _523
REMARK  217  A    between atoms: _523  and  _524
REMARK  218  A    between atoms: _524  and  _525
REMARK  219  A    between atoms: _534  and  _536
REMARK  220  A    between atoms: _536  and  _537
REMARK  221  A    between atoms: _536  and  _539
REMARK  222  A    between atoms: _539  and  _540
REMARK  223  A    between atoms: _540  and  _541
REMARK  224  A    between atoms: _544  and  _546
REMARK  225  A    between atoms: _546  and  _547
REMARK  226  A    between atoms: _546  and  _549
REMARK  227  A    between atoms: _552  and  _554
REMARK  228  A    between atoms: _554  and  _555
REMARK  229  A    between atoms: _554  and  _557
REMARK  230  A    between atoms: _557  and  _558
REMARK                            x       y       z     vdW  Elec       q    Type
REMARK                         _______ _______ _______ _____ _____    ______ ____
ROOT
ATOM      1  C   LEU A   4      10.625  -3.354  -5.970  0.00  0.00    +0.241 C 
ATOM      2  O   LEU A   4       9.758  -2.518  -5.565  0.00  0.00    -0.273 OA
ATOM      3  N   GLY A   5      11.050  -3.398  -7.219  0.00  0.00    -0.295 N 
ATOM      4  H   GLY A   5      11.816  -4.055  -7.471  0.00  0.00    +0.150 HD
ENDROOT
BRANCH   3   5
ATOM      5  CA  GLY A   5      10.469  -2.544  -8.259  0.00  0.00    +0.176 C 
BRANCH   5   6
ATOM      6  C   GLY A   5       9.447  -3.273  -9.073  0.00  0.00    +0.243 C 
ATOM      7  O   GLY A   5       9.436  -4.473  -9.103  0.00  0.00    -0.273 OA
ATOM      8  N   LEU A   6       8.573  -2.534  -9.755  0.00  0.00    -0.297 N 
ATOM      9  H   LEU A   6       8.509  -1.514  -9.563  0.00  0.00    +0.150 HD
BRANCH   8  10
ATOM     10  CA  LEU A   6       7.722  -3.115 -10.746  0.00  0.00    +0.149 C 
BRANCH  10  11
ATOM     11  C   LEU A   6       7.253  -2.047 -11.698  0.00  0.00    +0.241 C 
ATOM     12  O   LEU A   6       6.587  -1.028 -11.302  0.00  0.00    -0.273 OA
ATOM     13  N   LEU A   7       7.544  -2.309 -12.979  0.00  0.00    -0.297 N 
ATOM     14  H   LEU A   7       7.935  -3.237 -13.238  0.00  0.00    +0.150 HD
BRANCH  13  15
ATOM     15  CA  LEU A   7       7.320  -1.313 -14.010  0.00  0.00    +0.149 C 
BRANCH  15  16
ATOM     16  C   LEU A   7       6.597  -1.951 -15.216  0.00  0.00    +0.241 C 
ATOM     17  O   LEU A   7       6.976  -3.032 -15.661  0.00  0.00    -0.273 OA
ATOM     18  N   GLY A   8       5.520  -1.330 -15.685  0.00  0.00    -0.296 N 
ATOM     19  H   GLY A   8       5.181  -0.471 -15.206  0.00  0.00    +0.150 HD
BRANCH  18  20
ATOM     20  CA  GLY A   8       4.823  -1.807 -16.819  0.00  0.00    +0.163 C 
BRANCH  20  21
ATOM     21  C   GLY A   8       3.351  -1.458 -16.795  0.00  0.00    +0.229 C 
ATOM     22  O   GLY A   8       2.849  -1.001 -15.780  0.00  0.00    -0.286 OA
ENDBRANCH  20  21
ENDBRANCH  18  20
ENDBRANCH  15  16
BRANCH  15  23
ATOM     23  CB  LEU A   7       8.675  -0.765 -14.374  0.00  0.00    +0.029 C 
BRANCH  23  24
ATOM     24  CG  LEU A   7       8.816   0.316 -15.414  0.00  0.00    +0.002 C 
ATOM     25  CD2 LEU A   7       8.057   1.521 -15.040  0.00  0.00    +0.000 C 
ATOM     26  CD1 LEU A   7      10.270   0.691 -15.514  0.00  0.00    +0.000 C 
ENDBRANCH  23  24
ENDBRANCH  15  23
ENDBRANCH  13  15
ENDBRANCH  10  11
BRANCH  10  27
ATOM     27  CB  LEU A   6       6.551  -3.884 -10.103  0.00  0.00    +0.029 C 
BRANCH  27  28
ATOM     28  CG  LEU A   6       5.676  -4.801 -10.961  0.00  0.00    +0.002 C 
ATOM     29  CD2 LEU A   6       4.449  -5.216 -10.144  0.00  0.00    +0.000 C 
ATOM     30  CD1 LEU A   6       6.450  -6.032 -11.482  0.00  0.00    +0.000 C 
ENDBRANCH  27  28
ENDBRANCH  10  27
ENDBRANCH   8  10
ENDBRANCH   5   6
ENDBRANCH   3   5
BRANCH   1  31
ATOM     31  CA  LEU A   4      11.239  -4.415  -5.054  0.00  0.00    +0.149 C 
BRANCH  31  34
ATOM     32  C   GLY A   3      12.518  -3.764  -3.121  0.00  0.00    +0.243 C 
ATOM     33  O   GLY A   3      13.540  -4.216  -3.578  0.00  0.00    -0.273 OA
ATOM     34  N   LEU A   4      11.361  -3.845  -3.766  0.00  0.00    -0.297 N 
ATOM     35  H   LEU A   4      10.507  -3.473  -3.304  0.00  0.00    +0.150 HD
BRANCH  32  36
ATOM     36  CA  GLY A   3      12.514  -3.093  -1.762  0.00  0.00    +0.176 C 
BRANCH  36  39
ATOM     37  C   ALA A   2      13.556  -3.465   0.362  0.00  0.00    +0.241 C 
ATOM     38  O   ALA A   2      12.512  -3.087   0.976  0.00  0.00    -0.273 OA
ATOM     39  N   GLY A   3      13.610  -3.586  -0.970  0.00  0.00    -0.295 N 
ATOM     40  H   GLY A   3      14.432  -4.030  -1.426  0.00  0.00    +0.150 HD
BRANCH  37  41
ATOM     41  CA  ALA A   2      14.802  -3.808   1.142  0.00  0.00    +0.149 C 
ATOM     42  CB  ALA A   2      14.619  -5.208   1.791  0.00  0.00    +0.031 C 
BRANCH  41  44
ATOM     43  C   ASN A   1      15.293  -1.461   1.764  0.00  0.00    +0.239 C 
ATOM     44  N   ALA A   2      15.074  -2.710   2.155  0.00  0.00    -0.297 N 
ATOM     45  H   ALA A   2      15.089  -2.940   3.169  0.00  0.00    +0.150 HD
ATOM     46  O   ASN A   1      15.274  -1.132   0.604  0.00  0.00    -0.274 OA
BRANCH  43  47
ATOM     47  CA  ASN A   1      15.592  -0.430   2.848  0.00  0.00    +0.154 C 
BRANCH  47  48
ATOM     48  N   ASN A   1      15.184  -0.842   4.160  0.00  0.00    -0.238 NA
ATOM     49  H   ASN A   1      15.481  -1.780   4.498  0.00  0.00    +0.142 HD
ENDBRANCH  47  48
BRANCH  47  50
ATOM     50  CB  ASN A   1      17.061  -0.036   2.863  0.00  0.00    +0.111 C 
BRANCH  50  51
ATOM     51  CG  ASN A   1      17.678  -0.059   1.507  0.00  0.00    +0.221 C 
ATOM     52  ND2 ASN A   1      18.334  -1.145   1.192  0.00  0.00    -0.329 N 
ATOM     53 HD21 ASN A   1      18.426  -1.916   1.884  0.00  0.00    +0.145 HD
ATOM     54 HD22 ASN A   1      18.764  -1.238   0.250  0.00  0.00    +0.145 HD
ATOM     55  OD1 ASN A   1      17.540   0.871   0.740  0.00  0.00    -0.275 OA
ENDBRANCH  50  51
ENDBRANCH  47  50
ENDBRANCH  43  47
ENDBRANCH  41  44
ENDBRANCH  37  41
ENDBRANCH  36  39
ENDBRANCH  32  36
ENDBRANCH  31  34
BRANCH  31  56
ATOM     56  CB  LEU A   4      10.301  -5.604  -4.969  0.00  0.00    +0.029 C 
BRANCH  56  57
ATOM     57  CG  LEU A   4      10.761  -7.047  -5.159  0.00  0.00    +0.002 C 
ATOM     58  CD2 LEU A   4      12.042  -7.478  -4.443  0.00  0.00    +0.000 C 
ATOM     59  CD1 LEU A   4       9.615  -7.951  -4.816  0.00  0.00    +0.000 C 
ENDBRANCH  56  57
ENDBRANCH  31  56
ENDBRANCH   1  31
TORSDOF 24
REMARK  Name = ../refined-set-2016/3hb4/3hb4_pocket.pdb
REMARK  230 active torsions:
REMARK  status: ('A' for Active; 'I' for Inactive)
REMARK    1  A    between atoms: _1  and  _3
REMARK    2  A    between atoms: _3  and  _4
REMARK    3  A    between atoms: _3  and  _6
REMARK    4  A    between atoms: _6  and  _7
REMARK    5  A    between atoms: _9  and  _11
REMARK    6  A    between atoms: _11  and  _12
REMARK    7  A    between atoms: _11  and  _14
REMARK    8  A    between atoms: _14  and  _15
REMARK    9  A    between atoms: _18  and  _20
REMARK   10  A    between atoms: _20  and  _21
REMARK   11  A    between atoms: _20  and  _23
REMARK   12  A    between atoms: _23  and  _24
REMARK   13  A    between atoms: _29  and  _31
REMARK   14  A    between atoms: _31  and  _32
REMARK   15  A    between atoms: _35  and  _37
REMARK   16  A    between atoms: _37  and  _38
REMARK   17  A    between atoms: _40  and  _42
REMARK   18  A    between atoms: _42  and  _43
REMARK   19  A    between atoms: _42  and  _45
REMARK   20  A    between atoms: _45  and  _46
REMARK   21  A    between atoms: _49  and  _51
REMARK   22  A    between atoms: _51  and  _52
REMARK   23  A    between atoms: _54  and  _56
REMARK   24  A    between atoms: _56  and  _57
REMARK   25  A    between atoms: _56  and  _59
REMARK   26  A    between atoms: _59  and  _60
REMARK   27  A    between atoms: _63  and  _65
REMARK   28  A    between atoms: _65  and  _66
REMARK   29  A    between atoms: _65  and  _68
REMARK   30  A    between atoms: _68  and  _69
REMARK   31  A    between atoms: _72  and  _74
REMARK   32  A    between atoms: _74  and  _75
REMARK   33  A    between atoms: _77  and  _79
REMARK   34  A    between atoms: _79  and  _80
REMARK   35  A    between atoms: _79  and  _82
REMARK   36  A    between atoms: _82  and  _83
REMARK   37  A    between atoms: _88  and  _90
REMARK   38  A    between atoms: _90  and  _91
REMARK   39  A    between atoms: _90  and  _93
REMARK   40  A    between atoms: _93  and  _94
REMARK   41  A    between atoms: _97  and  _99
REMARK   42  A    between atoms: _99  and  _100
REMARK   43  A    between atoms: _102  and  _104
REMARK   44  A    between atoms: _104  and  _105
REMARK   45  A    between atoms: _104  and  _107
REMARK   46  A    between atoms: _107  and  _108
REMARK   47  A    between atoms: _110  and  _112
REMARK   48  A    between atoms: _112  and  _113
REMARK   49  A    between atoms: _112  and  _115
REMARK   50  A    between atoms: _118  and  _120
REMARK   51  A    between atoms: _120  and  _121
REMARK   52  A    between atoms: _123  and  _125
REMARK   53  A    between atoms: _125  and  _126
REMARK   54  A    between atoms: _128  and  _130
REMARK   55  A    between atoms: _130  and  _131
REMARK   56  A    between atoms: _130  and  _133
REMARK   57  A    between atoms: _133  and  _134
REMARK   58  A    between atoms: _137  and  _139
REMARK   59  A    between atoms: _139  and  _140
REMARK   60  A    between atoms: _139  and  _142
REMARK   61  A    between atoms: _142  and  _143
REMARK   62  A    between atoms: _143  and  _144
REMARK   63  A    between atoms: _146  and  _148
REMARK   64  A    between atoms: _148  and  _149
REMARK   65  A    between atoms: _151  and  _153
REMARK   66  A    between atoms: _153  and  _154
REMARK   67  A    between atoms: _153  and  _156
REMARK   68  A    between atoms: _156  and  _157
REMARK   69  A    between atoms: _161  and  _162
REMARK   70  A    between atoms: _167  and  _169
REMARK   71  A    between atoms: _169  and  _170
REMARK   72  A    between atoms: _169  and  _172
REMARK   73  A    between atoms: _172  and  _173
REMARK   74  A    between atoms: _179  and  _181
REMARK   75  A    between atoms: _181  and  _182
REMARK   76  A    between atoms: _181  and  _184
REMARK   77  A    between atoms: _184  and  _185
REMARK   78  A    between atoms: _190  and  _192
REMARK   79  A    between atoms: _192  and  _193
REMARK   80  A    between atoms: _192  and  _195
REMARK   81  A    between atoms: _195  and  _196
REMARK   82  A    between atoms: _201  and  _202
REMARK   83  A    between atoms: _204  and  _206
REMARK   84  A    between atoms: _206  and  _207
REMARK   85  A    between atoms: _206  and  _209
REMARK   86  A    between atoms: _211  and  _213
REMARK   87  A    between atoms: _213  and  _214
REMARK   88  A    between atoms: _213  and  _216
REMARK   89  A    between atoms: _216  and  _217
REMARK   90  A    between atoms: _217  and  _218
REMARK   91  A    between atoms: _218  and  _219
REMARK   92  A    between atoms: _219  and  _220
REMARK   93  A    between atoms: _224  and  _226
REMARK   94  A    between atoms: _226  and  _227
REMARK   95  A    between atoms: _226  and  _229
REMARK   96  A    between atoms: _229  and  _230
REMARK   97  A    between atoms: _230  and  _231
REMARK   98  A    between atoms: _234  and  _236
REMARK   99  A    between atoms: _236  and  _237
REMARK  100  A    between atoms: _236  and  _239
REMARK  101  A    between atoms: _241  and  _243
REMARK  102  A    between atoms: _243  and  _244
REMARK  103  A    between atoms: _247  and  _248
REMARK  104  A    between atoms: _253  and  _255
REMARK  105  A    between atoms: _255  and  _256
REMARK  106  A    between atoms: _255  and  _258
REMARK  107  A    between atoms: _261  and  _263
REMARK  108  A    between atoms: _263  and  _264
REMARK  109  A    between atoms: _263  and  _266
REMARK  110  A    between atoms: _266  and  _267
REMARK  111  A    between atoms: _270  and  _272
REMARK  112  A    between atoms: _272  and  _273
REMARK  113  A    between atoms: _276  and  _278
REMARK  114  A    between atoms: _278  and  _279
REMARK  115  A    between atoms: _278  and  _281
REMARK  116  A    between atoms: _281  and  _282
REMARK  117  A    between atoms: _288  and  _290
REMARK  118  A    between atoms: _290  and  _291
REMARK  119  A    between atoms: _290  and  _293
REMARK  120  A    between atoms: _293  and  _294
REMARK  121  A    between atoms: _294  and  _295
REMARK  122  A    between atoms: _297  and  _299
REMARK  123  A    between atoms: _299  and  _300
REMARK  124  A    between atoms: _299  and  _302
REMARK  125  A    between atoms: _302  and  _303
REMARK  126  A    between atoms: _303  and  _304
REMARK  127  A    between atoms: _307  and  _309
REMARK  128  A    between atoms: _309  and  _310
REMARK  129  A    between atoms: _309  and  _312
REMARK  130  A    between atoms: _312  and  _313
REMARK  131  A    between atoms: _313  and  _314
REMARK  132  A    between atoms: _314  and  _315
REMARK  133  A    between atoms: _315  and  _316
REMARK  134  A    between atoms: _320  and  _322
REMARK  135  A    between atoms: _322  and  _323
REMARK  136  A    between atoms: _322  and  _325
REMARK  137  A    between atoms: _328  and  _330
REMARK  138  A    between atoms: _330  and  _331
REMARK  139  A    between atoms: _330  and  _333
REMARK  140  A    between atoms: _333  and  _334
REMARK  141  A    between atoms: _337  and  _339
REMARK  142  A    between atoms: _339  and  _340
REMARK  143  A    between atoms: _339  and  _342
REMARK  144  A    between atoms: _342  and  _343
REMARK  145  A    between atoms: _348  and  _349
REMARK  146  A    between atoms: _351  and  _353
REMARK  147  A    between atoms: _353  and  _354
REMARK  148  A    between atoms: _353  and  _356
REMARK  149  A    between atoms: _356  and  _357
REMARK  150  A    between atoms: _360  and  _362
REMARK  151  A    between atoms: _362  and  _363
REMARK  152  A    between atoms: _362  and  _365
REMARK  153  A    between atoms: _365  and  _366
REMARK  154  A    between atoms: _371  and  _373
REMARK  155  A    between atoms: _373  and  _374
REMARK  156  A    between atoms: _373  and  _376
REMARK  157  A    between atoms: _376  and  _377
REMARK  158  A    between atoms: _379  and  _381
REMARK  159  A    between atoms: _381  and  _382
REMARK  160  A    between atoms: _381  and  _384
REMARK  161  A    between atoms: _384  and  _385
REMARK  162  A    between atoms: _385  and  _386
REMARK  163  A    between atoms: _386  and  _387
REMARK  164  A    between atoms: _387  and  _388
REMARK  165  A    between atoms: _392  and  _394
REMARK  166  A    between atoms: _394  and  _395
REMARK  167  A    between atoms: _394  and  _397
REMARK  168  A    between atoms: _397  and  _398
REMARK  169  A    between atoms: _398  and  _399
REMARK  170  A    between atoms: _404  and  _406
REMARK  171  A    between atoms: _406  and  _407
REMARK  172  A    between atoms: _406  and  _409
REMARK  173  A    between atoms: _412  and  _414
REMARK  174  A    between atoms: _414  and  _415
REMARK  175  A    between atoms: _414  and  _417
REMARK  176  A    between atoms: _417  and  _418
REMARK  177  A    between atoms: _424  and  _426
REMARK  178  A    between atoms: _426  and  _427
REMARK  179  A    between atoms: _430  and  _432
REMARK  180  A    between atoms: _432  and  _433
REMARK  181  A    between atoms: _432  and  _435
REMARK  182  A    between atoms: _435  and  _436
REMARK  183  A    between atoms: _439  and  _441
REMARK  184  A    between atoms: _441  and  _442
REMARK  185  A    between atoms: _441  and  _444
REMARK  186  A    between atoms: _444  and  _445
REMARK  187  A    between atoms: _445  and  _446
REMARK  188  A    between atoms: _446  and  _447
REMARK  189  A    between atoms: _456  and  _458
REMARK  190  A    between atoms: _458  and  _459
REMARK  191  A    between atoms: _458  and  _461
REMARK  192  A    between atoms: _461  and  _462
REMARK  193  A    between atoms: _468  and  _470
REMARK  194  A    between atoms: _470  and  _471
REMARK  195  A    between atoms: _470  and  _473
REMARK  196  A    between atoms: _473  and  _474
REMARK  197  A    between atoms: _477  and  _479
REMARK  198  A    between atoms: _479  and  _480
REMARK  199  A    between atoms: _479  and  _482
REMARK  200  A    between atoms: _482  and  _483
REMARK  201  A    between atoms: _488  and  _489
REMARK  202  A    between atoms: _491  and  _493
REMARK  203  A    between atoms: _493  and  _494
REMARK  204  A    between atoms: _497  and  _499
REMARK  205  A    between atoms: _499  and  _500
REMARK  206  A    between atoms: _499  and  _502
REMARK  207  A    between atoms: _502  and  _503
REMARK  208  A    between atoms: _503  and  _504
REMARK  209  A    between atoms: _506  and  _508
REMARK  210  A    between atoms: _508  and  _509
REMARK  211  A    between atoms: _508  and  _511
REMARK  212  A    between atoms: _511  and  _512
REMARK  213  A    between atoms: _517  and  _519
REMARK  214  A    between atoms: _519  and  _520
REMARK  215  A    between atoms: _519  and  _522
REMARK  216  A    between atoms: _522  and  _523
REMARK  217  A    between atoms: _523  and  _524
REMARK  218  A    between atoms: _524  and  _525
REMARK  219  A    between atoms: _534  and  _536
REMARK  220  A    between atoms: _536  and  _537
REMARK  221  A    between atoms: _536  and  _539
REMARK  222  A    between atoms: _539  and  _540
REMARK  223  A    between atoms: _540  and  _541
REMARK  224  A    between atoms: _544  and  _546
REMARK  225  A    between atoms: _546  and  _547
REMARK  226  A    between atoms: _546  and  _549
REMARK  227  A    between atoms: _552  and  _554
REMARK  228  A    between atoms: _554  and  _555
REMARK  229  A    between atoms: _554  and  _557
REMARK  230  A    between atoms: _557  and  _558
REMARK                            x       y       z     vdW  Elec       q    Type
REMARK                         _______ _______ _______ _____ _____    ______ ____
ROOT
ATOM      1  CB  ASN A   1       7.491  -2.449  -0.931  0.00  0.00    +0.110 C 
ENDROOT
BRANCH   1   2
ATOM      2  CG  ASN A   1       8.380  -2.681  -2.130  0.00  0.00    +0.221 C 
ATOM      3  OD1 ASN A   1       9.283  -3.497  -2.062  0.00  0.00    -0.275 OA
ATOM      4  ND2 ASN A   1       8.083  -2.007  -3.265  0.00  0.00    -0.329 N 
ATOM      5 HD21 ASN A   1       7.302  -1.320  -3.273  0.00  0.00    +0.145 HD
ATOM      6 HD22 ASN A   1       8.636  -2.176  -4.130  0.00  0.00    +0.145 HD
ENDBRANCH   1   2
BRANCH   1   7
ATOM      7  CA  ASN A   1       7.821  -3.389   0.259  0.00  0.00    +0.142 C 
BRANCH   7   8
ATOM      8  N   ASN A   1       7.612  -4.859  -0.002  0.00  0.00    -0.239 NA
ATOM      9  H   ASN A   1       6.999  -5.184  -0.777  0.00  0.00    +0.142 HD
ENDBRANCH   7   8
BRANCH   7  10
ATOM     10  C   ASN A   1       7.010  -2.864   1.458  0.00  0.00    +0.225 C 
ATOM     11  O   ASN A   1       7.442  -1.930   2.134  0.00  0.00    -0.287 OA
ENDBRANCH   7  10
ENDBRANCH   1   7
TORSDOF 4
REMARK  Name = ../refined-set-2016/3hb4/3hb4_pocket.pdb
REMARK  230 active torsions:
REMARK  status: ('A' for Active; 'I' for Inactive)
REMARK    1  A    between atoms: _1  and  _3
REMARK    2  A    between atoms: _3  and  _4
REMARK    3  A    between atoms: _3  and  _6
REMARK    4  A    between atoms: _6  and  _7
REMARK    5  A    between atoms: _9  and  _11
REMARK    6  A    between atoms: _11  and  _12
REMARK    7  A    between atoms: _11  and  _14
REMARK    8  A    between atoms: _14  and  _15
REMARK    9  A    between atoms: _18  and  _20
REMARK   10  A    between atoms: _20  and  _21
REMARK   11  A    between atoms: _20  and  _23
REMARK   12  A    between atoms: _23  and  _24
REMARK   13  A    between atoms: _29  and  _31
REMARK   14  A    between atoms: _31  and  _32
REMARK   15  A    between atoms: _35  and  _37
REMARK   16  A    between atoms: _37  and  _38
REMARK   17  A    between atoms: _40  and  _42
REMARK   18  A    between atoms: _42  and  _43
REMARK   19  A    between atoms: _42  and  _45
REMARK   20  A    between atoms: _45  and  _46
REMARK   21  A    between atoms: _49  and  _51
REMARK   22  A    between atoms: _51  and  _52
REMARK   23  A    between atoms: _54  and  _56
REMARK   24  A    between atoms: _56  and  _57
REMARK   25  A    between atoms: _56  and  _59
REMARK   26  A    between atoms: _59  and  _60
REMARK   27  A    between atoms: _63  and  _65
REMARK   28  A    between atoms: _65  and  _66
REMARK   29  A    between atoms: _65  and  _68
REMARK   30  A    between atoms: _68  and  _69
REMARK   31  A    between atoms: _72  and  _74
REMARK   32  A    between atoms: _74  and  _75
REMARK   33  A    between atoms: _77  and  _79
REMARK   34  A    between atoms: _79  and  _80
REMARK   35  A    between atoms: _79  and  _82
REMARK   36  A    between atoms: _82  and  _83
REMARK   37  A    between atoms: _88  and  _90
REMARK   38  A    between atoms: _90  and  _91
REMARK   39  A    between atoms: _90  and  _93
REMARK   40  A    between atoms: _93  and  _94
REMARK   41  A    between atoms: _97  and  _99
REMARK   42  A    between atoms: _99  and  _100
REMARK   43  A    between atoms: _102  and  _104
REMARK   44  A    between atoms: _104  and  _105
REMARK   45  A    between atoms: _104  and  _107
REMARK   46  A    between atoms: _107  and  _108
REMARK   47  A    between atoms: _110  and  _112
REMARK   48  A    between atoms: _112  and  _113
REMARK   49  A    between atoms: _112  and  _115
REMARK   50  A    between atoms: _118  and  _120
REMARK   51  A    between atoms: _120  and  _121
REMARK   52  A    between atoms: _123  and  _125
REMARK   53  A    between atoms: _125  and  _126
REMARK   54  A    between atoms: _128  and  _130
REMARK   55  A    between atoms: _130  and  _131
REMARK   56  A    between atoms: _130  and  _133
REMARK   57  A    between atoms: _133  and  _134
REMARK   58  A    between atoms: _137  and  _139
REMARK   59  A    between atoms: _139  and  _140
REMARK   60  A    between atoms: _139  and  _142
REMARK   61  A    between atoms: _142  and  _143
REMARK   62  A    between atoms: _143  and  _144
REMARK   63  A    between atoms: _146  and  _148
REMARK   64  A    between atoms: _148  and  _149
REMARK   65  A    between atoms: _151  and  _153
REMARK   66  A    between atoms: _153  and  _154
REMARK   67  A    between atoms: _153  and  _156
REMARK   68  A    between atoms: _156  and  _157
REMARK   69  A    between atoms: _161  and  _162
REMARK   70  A    between atoms: _167  and  _169
REMARK   71  A    between atoms: _169  and  _170
REMARK   72  A    between atoms: _169  and  _172
REMARK   73  A    between atoms: _172  and  _173
REMARK   74  A    between atoms: _179  and  _181
REMARK   75  A    between atoms: _181  and  _182
REMARK   76  A    between atoms: _181  and  _184
REMARK   77  A    between atoms: _184  and  _185
REMARK   78  A    between atoms: _190  and  _192
REMARK   79  A    between atoms: _192  and  _193
REMARK   80  A    between atoms: _192  and  _195
REMARK   81  A    between atoms: _195  and  _196
REMARK   82  A    between atoms: _201  and  _202
REMARK   83  A    between atoms: _204  and  _206
REMARK   84  A    between atoms: _206  and  _207
REMARK   85  A    between atoms: _206  and  _209
REMARK   86  A    between atoms: _211  and  _213
REMARK   87  A    between atoms: _213  and  _214
REMARK   88  A    between atoms: _213  and  _216
REMARK   89  A    between atoms: _216  and  _217
REMARK   90  A    between atoms: _217  and  _218
REMARK   91  A    between atoms: _218  and  _219
REMARK   92  A    between atoms: _219  and  _220
REMARK   93  A    between atoms: _224  and  _226
REMARK   94  A    between atoms: _226  and  _227
REMARK   95  A    between atoms: _226  and  _229
REMARK   96  A    between atoms: _229  and  _230
REMARK   97  A    between atoms: _230  and  _231
REMARK   98  A    between atoms: _234  and  _236
REMARK   99  A    between atoms: _236  and  _237
REMARK  100  A    between atoms: _236  and  _239
REMARK  101  A    between atoms: _241  and  _243
REMARK  102  A    between atoms: _243  and  _244
REMARK  103  A    between atoms: _247  and  _248
REMARK  104  A    between atoms: _253  and  _255
REMARK  105  A    between atoms: _255  and  _256
REMARK  106  A    between atoms: _255  and  _258
REMARK  107  A    between atoms: _261  and  _263
REMARK  108  A    between atoms: _263  and  _264
REMARK  109  A    between atoms: _263  and  _266
REMARK  110  A    between atoms: _266  and  _267
REMARK  111  A    between atoms: _270  and  _272
REMARK  112  A    between atoms: _272  and  _273
REMARK  113  A    between atoms: _276  and  _278
REMARK  114  A    between atoms: _278  and  _279
REMARK  115  A    between atoms: _278  and  _281
REMARK  116  A    between atoms: _281  and  _282
REMARK  117  A    between atoms: _288  and  _290
REMARK  118  A    between atoms: _290  and  _291
REMARK  119  A    between atoms: _290  and  _293
REMARK  120  A    between atoms: _293  and  _294
REMARK  121  A    between atoms: _294  and  _295
REMARK  122  A    between atoms: _297  and  _299
REMARK  123  A    between atoms: _299  and  _300
REMARK  124  A    between atoms: _299  and  _302
REMARK  125  A    between atoms: _302  and  _303
REMARK  126  A    between atoms: _303  and  _304
REMARK  127  A    between atoms: _307  and  _309
REMARK  128  A    between atoms: _309  and  _310
REMARK  129  A    between atoms: _309  and  _312
REMARK  130  A    between atoms: _312  and  _313
REMARK  131  A    between atoms: _313  and  _314
REMARK  132  A    between atoms: _314  and  _315
REMARK  133  A    between atoms: _315  and  _316
REMARK  134  A    between atoms: _320  and  _322
REMARK  135  A    between atoms: _322  and  _323
REMARK  136  A    between atoms: _322  and  _325
REMARK  137  A    between atoms: _328  and  _330
REMARK  138  A    between atoms: _330  and  _331
REMARK  139  A    between atoms: _330  and  _333
REMARK  140  A    between atoms: _333  and  _334
REMARK  141  A    between atoms: _337  and  _339
REMARK  142  A    between atoms: _339  and  _340
REMARK  143  A    between atoms: _339  and  _342
REMARK  144  A    between atoms: _342  and  _343
REMARK  145  A    between atoms: _348  and  _349
REMARK  146  A    between atoms: _351  and  _353
REMARK  147  A    between atoms: _353  and  _354
REMARK  148  A    between atoms: _353  and  _356
REMARK  149  A    between atoms: _356  and  _357
REMARK  150  A    between atoms: _360  and  _362
REMARK  151  A    between atoms: _362  and  _363
REMARK  152  A    between atoms: _362  and  _365
REMARK  153  A    between atoms: _365  and  _366
REMARK  154  A    between atoms: _371  and  _373
REMARK  155  A    between atoms: _373  and  _374
REMARK  156  A    between atoms: _373  and  _376
REMARK  157  A    between atoms: _376  and  _377
REMARK  158  A    between atoms: _379  and  _381
REMARK  159  A    between atoms: _381  and  _382
REMARK  160  A    between atoms: _381  and  _384
REMARK  161  A    between atoms: _384  and  _385
REMARK  162  A    between atoms: _385  and  _386
REMARK  163  A    between atoms: _386  and  _387
REMARK  164  A    between atoms: _387  and  _388
REMARK  165  A    between atoms: _392  and  _394
REMARK  166  A    between atoms: _394  and  _395
REMARK  167  A    between atoms: _394  and  _397
REMARK  168  A    between atoms: _397  and  _398
REMARK  169  A    between atoms: _398  and  _399
REMARK  170  A    between atoms: _404  and  _406
REMARK  171  A    between atoms: _406  and  _407
REMARK  172  A    between atoms: _406  and  _409
REMARK  173  A    between atoms: _412  and  _414
REMARK  174  A    between atoms: _414  and  _415
REMARK  175  A    between atoms: _414  and  _417
REMARK  176  A    between atoms: _417  and  _418
REMARK  177  A    between atoms: _424  and  _426
REMARK  178  A    between atoms: _426  and  _427
REMARK  179  A    between atoms: _430  and  _432
REMARK  180  A    between atoms: _432  and  _433
REMARK  181  A    between atoms: _432  and  _435
REMARK  182  A    between atoms: _435  and  _436
REMARK  183  A    between atoms: _439  and  _441
REMARK  184  A    between atoms: _441  and  _442
REMARK  185  A    between atoms: _441  and  _444
REMARK  186  A    between atoms: _444  and  _445
REMARK  187  A    between atoms: _445  and  _446
REMARK  188  A    between atoms: _446  and  _447
REMARK  189  A    between atoms: _456  and  _458
REMARK  190  A    between atoms: _458  and  _459
REMARK  191  A    between atoms: _458  and  _461
REMARK  192  A    between atoms: _461  and  _462
REMARK  193  A    between atoms: _468  and  _470
REMARK  194  A    between atoms: _470  and  _471
REMARK  195  A    between atoms: _470  and  _473
REMARK  196  A    between atoms: _473  and  _474
REMARK  197  A    between atoms: _477  and  _479
REMARK  198  A    between atoms: _479  and  _480
REMARK  199  A    between atoms: _479  and  _482
REMARK  200  A    between atoms: _482  and  _483
REMARK  201  A    between atoms: _488  and  _489
REMARK  202  A    between atoms: _491  and  _493
REMARK  203  A    between atoms: _493  and  _494
REMARK  204  A    between atoms: _497  and  _499
REMARK  205  A    between atoms: _499  and  _500
REMARK  206  A    between atoms: _499  and  _502
REMARK  207  A    between atoms: _502  and  _503
REMARK  208  A    between atoms: _503  and  _504
REMARK  209  A    between atoms: _506  and  _508
REMARK  210  A    between atoms: _508  and  _509
REMARK  211  A    between atoms: _508  and  _511
REMARK  212  A    between atoms: _511  and  _512
REMARK  213  A    between atoms: _517  and  _519
REMARK  214  A    between atoms: _519  and  _520
REMARK  215  A    between atoms: _519  and  _522
REMARK  216  A    between atoms: _522  and  _523
REMARK  217  A    between atoms: _523  and  _524
REMARK  218  A    between atoms: _524  and  _525
REMARK  219  A    between atoms: _534  and  _536
REMARK  220  A    between atoms: _536  and  _537
REMARK  221  A    between atoms: _536  and  _539
REMARK  222  A    between atoms: _539  and  _540
REMARK  223  A    between atoms: _540  and  _541
REMARK  224  A    between atoms: _544  and  _546
REMARK  225  A    between atoms: _546  and  _547
REMARK  226  A    between atoms: _546  and  _549
REMARK  227  A    between atoms: _552  and  _554
REMARK  228  A    between atoms: _554  and  _555
REMARK  229  A    between atoms: _554  and  _557
REMARK  230  A    between atoms: _557  and  _558
REMARK                            x       y       z     vdW  Elec       q    Type
REMARK                         _______ _______ _______ _____ _____    ______ ____
ROOT
ATOM      1  C   LEU A   7       3.683  11.655  -3.973  0.00  0.00    +0.241 C 
ATOM      2  O   LEU A   7       2.902  12.530  -3.800  0.00  0.00    -0.273 OA
ATOM      3  N   MET A   8       3.808  11.048  -5.169  0.00  0.00    -0.297 N 
ATOM      4  H   MET A   8       4.485  10.264  -5.262  0.00  0.00    +0.150 HD
ENDROOT
BRANCH   1   5
ATOM      5  CA  LEU A   7       4.522  11.151  -2.761  0.00  0.00    +0.149 C 
BRANCH   5   8
ATOM      6  C   GLY A   6       4.728   8.703  -2.315  0.00  0.00    +0.243 C 
ATOM      7  O   GLY A   6       3.861   8.730  -1.454  0.00  0.00    -0.273 OA
ATOM      8  N   LEU A   7       5.100   9.783  -2.994  0.00  0.00    -0.297 N 
ATOM      9  H   LEU A   7       5.831   9.676  -3.726  0.00  0.00    +0.150 HD
BRANCH   6  10
ATOM     10  CA  GLY A   6       5.420   7.375  -2.666  0.00  0.00    +0.176 C 
BRANCH  10  12
ATOM     11  C   GLY A   5       6.017   7.335  -5.032  0.00  0.00    +0.243 C 
ATOM     12  N   GLY A   6       6.380   7.507  -3.756  0.00  0.00    -0.295 N 
ATOM     13  H   GLY A   6       7.369   7.740  -3.536  0.00  0.00    +0.150 HD
ATOM     14  O   GLY A   5       4.923   6.889  -5.321  0.00  0.00    -0.273 OA
BRANCH  11  15
ATOM     15  CA  GLY A   5       7.005   7.774  -6.147  0.00  0.00    +0.176 C 
BRANCH  15  18
ATOM     16  C   VAL A   4       8.023   9.826  -5.204  0.00  0.00    +0.241 C 
ATOM     17  O   VAL A   4       6.995  10.434  -5.268  0.00  0.00    -0.273 OA
ATOM     18  N   GLY A   5       8.158   8.590  -5.671  0.00  0.00    -0.295 N 
ATOM     19  H   GLY A   5       9.110   8.173  -5.706  0.00  0.00    +0.150 HD
BRANCH  16  20
ATOM     20  CA  VAL A   4       9.252  10.485  -4.512  0.00  0.00    +0.149 C 
BRANCH  20  23
ATOM     21  C   SER A   3       9.756   8.606  -3.099  0.00  0.00    +0.243 C 
ATOM     22  O   SER A   3       8.831   8.854  -2.346  0.00  0.00    -0.273 OA
ATOM     23  N   VAL A   4      10.047   9.352  -4.130  0.00  0.00    -0.297 N 
ATOM     24  H   VAL A   4      10.887   9.117  -4.696  0.00  0.00    +0.150 HD
BRANCH  21  25
ATOM     25  CA  SER A   3      10.702   7.432  -2.848  0.00  0.00    +0.178 C 
BRANCH  25  28
ATOM     26  C   GLY A   2      11.512   6.652  -0.694  0.00  0.00    +0.243 C 
ATOM     27  O   GLY A   2      12.693   6.630  -1.094  0.00  0.00    -0.273 OA
ATOM     28  N   SER A   3      10.490   7.046  -1.461  0.00  0.00    -0.295 N 
ATOM     29  H   SER A   3       9.531   7.077  -1.061  0.00  0.00    +0.150 HD
BRANCH  26  30
ATOM     30  CA  GLY A   2      11.149   6.227   0.715  0.00  0.00    +0.176 C 
BRANCH  30  33
ATOM     31  C   THR A   1      12.591   4.575   1.741  0.00  0.00    +0.241 C 
ATOM     32  O   THR A   1      11.719   3.679   1.664  0.00  0.00    -0.274 OA
ATOM     33  N   GLY A   2      12.350   5.861   1.427  0.00  0.00    -0.295 N 
ATOM     34  H   GLY A   2      13.034   6.596   1.699  0.00  0.00    +0.150 HD
BRANCH  31  35
ATOM     35  CA  THR A   1      13.952   4.273   2.342  0.00  0.00    +0.172 C 
BRANCH  35  36
ATOM     36  CB  THR A   1      14.781   3.283   1.552  0.00  0.00    +0.135 C 
ATOM     37  CG2 THR A   1      15.292   3.903   0.167  0.00  0.00    +0.034 C 
BRANCH  36  38
ATOM     38  OG1 THR A   1      15.922   3.007   2.351  0.00  0.00    -0.383 OA
ATOM     39  HG1 THR A   1      16.505   2.360   1.880  0.00  0.00    +0.210 HD
ENDBRANCH  36  38
ENDBRANCH  35  36
BRANCH  35  40
ATOM     40  N   THR A   1      13.812   3.810   3.727  0.00  0.00    -0.236 NA
ATOM     41  H   THR A   1      14.118   2.847   3.973  0.00  0.00    +0.142 HD
ENDBRANCH  35  40
ENDBRANCH  31  35
ENDBRANCH  30  33
ENDBRANCH  26  30
ENDBRANCH  25  28
BRANCH  25  42
ATOM     42  CB  SER A   3      10.357   6.260  -3.782  0.00  0.00    +0.166 C 
BRANCH  42  43
ATOM     43  OG  SER A   3      10.044   6.715  -5.091  0.00  0.00    -0.380 OA
ATOM     44  H   SER A   3      10.823   7.198  -5.466  0.00  0.00    +0.211 HD
ENDBRANCH  42  43
ENDBRANCH  25  42
ENDBRANCH  21  25
ENDBRANCH  20  23
BRANCH  20  45
ATOM     45  CB  VAL A   4      10.121  11.468  -5.370  0.00  0.00    +0.027 C 
ATOM     46  CG2 VAL A   4      11.086  12.358  -4.459  0.00  0.00    +0.002 C 
ATOM     47  CG1 VAL A   4       9.270  12.393  -6.316  0.00  0.00    +0.002 C 
ENDBRANCH  20  45
ENDBRANCH  16  20
ENDBRANCH  15  18
ENDBRANCH  11  15
ENDBRANCH  10  12
ENDBRANCH   6  10
ENDBRANCH   5   8
BRANCH   5  48
ATOM     48  CB  LEU A   7       5.666  12.172  -2.514  0.00  0.00    +0.029 C 
BRANCH  48  49
ATOM     49  CG  LEU A   7       6.724  11.753  -1.465  0.00  0.00    +0.002 C 
ATOM     50  CD2 LEU A   7       6.081  11.674  -0.133  0.00  0.00    +0.000 C 
ATOM     51  CD1 LEU A   7       7.801  12.828  -1.444  0.00  0.00    +0.000 C 
ENDBRANCH  48  49
ENDBRANCH   5  48
ENDBRANCH   1   5
BRANCH   3  52
ATOM     52  CA  MET A   8       3.020  11.453  -6.357  0.00  0.00    +0.149 C 
BRANCH  52  53
ATOM     53  C   MET A   8       3.043  10.247  -7.309  0.00  0.00    +0.241 C 
ATOM     54  O   MET A   8       4.051   9.577  -7.390  0.00  0.00    -0.273 OA
ATOM     55  N   GLY A   9       1.942   9.972  -7.991  0.00  0.00    -0.295 N 
ATOM     56  H   GLY A   9       1.139  10.628  -7.911  0.00  0.00    +0.150 HD
BRANCH  55  57
ATOM     57  CA  GLY A   9       1.787   8.777  -8.867  0.00  0.00    +0.176 C 
BRANCH  57  58
ATOM     58  C   GLY A   9       2.447   9.017 -10.189  0.00  0.00    +0.243 C 
ATOM     59  O   GLY A   9       2.490  10.175 -10.659  0.00  0.00    -0.273 OA
ATOM     60  N   LEU A  10       3.035   7.958 -10.741  0.00  0.00    -0.297 N 
ATOM     61  H   LEU A  10       3.043   7.074 -10.193  0.00  0.00    +0.150 HD
BRANCH  60  62
ATOM     62  CA  LEU A  10       3.678   7.941 -12.073  0.00  0.00    +0.149 C 
BRANCH  62  63
ATOM     63  C   LEU A  10       3.091   6.865 -13.031  0.00  0.00    +0.244 C 
ATOM     64  O   LEU A  10       2.971   5.727 -12.638  0.00  0.00    -0.273 OA
ATOM     65  N   PRO A  11       2.836   7.226 -14.322  0.00  0.00    -0.272 N 
ATOM     66  CD  PRO A  11       3.085   8.539 -14.947  0.00  0.00    +0.094 C 
ATOM     67  CG  PRO A  11       3.005   8.255 -16.422  0.00  0.00    +0.024 C 
ATOM     68  CB  PRO A  11       2.096   7.019 -16.596  0.00  0.00    +0.031 C 
ATOM     69  CA  PRO A  11       2.258   6.237 -15.266  0.00  0.00    +0.152 C 
BRANCH  69  70
ATOM     70  C   PRO A  11       3.197   5.092 -15.341  0.00  0.00    +0.241 C 
ATOM     71  O   PRO A  11       4.384   5.285 -15.215  0.00  0.00    -0.273 OA
ATOM     72  N   PHE A  12       2.643   3.896 -15.375  0.00  0.00    -0.297 N 
ATOM     73  H   PHE A  12       1.605   3.844 -15.343  0.00  0.00    +0.150 HD
BRANCH  72  74
ATOM     74  CA  PHE A  12       3.368   2.666 -15.453  0.00  0.00    +0.153 C 
BRANCH  74  75
ATOM     75  C   PHE A  12       4.098   2.265 -14.190  0.00  0.00    +0.241 C 
ATOM     76  N   ASN A  13       3.950   3.040 -13.108  0.00  0.00    -0.298 N 
ATOM     77  H   ASN A  13       3.388   3.911 -13.186  0.00  0.00    +0.150 HD
ATOM     78  O   PHE A  12       4.761   1.218 -14.215  0.00  0.00    -0.273 OA
BRANCH  76  79
ATOM     79  CA  ASN A  13       4.557   2.698 -11.814  0.00  0.00    +0.146 C 
BRANCH  79  80
ATOM     80  C   ASN A  13       3.408   2.447 -10.806  0.00  0.00    +0.227 C 
ATOM     81  O   ASN A  13       3.562   2.618  -9.630  0.00  0.00    -0.286 OA
ENDBRANCH  79  80
BRANCH  79  82
ATOM     82  CB  ASN A  13       5.446   3.848 -11.332  0.00  0.00    +0.112 C 
BRANCH  82  83
ATOM     83  CG  ASN A  13       6.732   4.024 -12.176  0.00  0.00    +0.222 C 
ATOM     84  OD1 ASN A  13       7.785   3.537 -11.821  0.00  0.00    -0.275 OA
ATOM     85  ND2 ASN A  13       6.604   4.646 -13.315  0.00  0.00    -0.329 N 
ATOM     86 HD21 ASN A  13       5.685   5.051 -13.586  0.00  0.00    +0.145 HD
ATOM     87 HD22 ASN A  13       7.421   4.737 -13.952  0.00  0.00    +0.145 HD
ENDBRANCH  82  83
ENDBRANCH  79  82
ENDBRANCH  76  79
ENDBRANCH  74  75
BRANCH  74  88
ATOM     88  CB  PHE A  12       4.276   2.605 -16.718  0.00  0.00    +0.055 C 
BRANCH  88  89
ATOM     89  CG  PHE A  12       3.502   2.807 -18.014  0.00  0.00    -0.020 A 
ATOM     90  CD2 PHE A  12       2.732   1.802 -18.539  0.00  0.00    -0.004 A 
ATOM     91  CE2 PHE A  12       1.977   2.010 -19.731  0.00  0.00    -0.000 A 
ATOM     92  CZ  PHE A  12       1.987   3.228 -20.375  0.00  0.00    -0.000 A 
ATOM     93  CE1 PHE A  12       2.728   4.237 -19.847  0.00  0.00    -0.000 A 
ATOM     94  CD1 PHE A  12       3.490   4.033 -18.631  0.00  0.00    -0.004 A 
ENDBRANCH  88  89
ENDBRANCH  74  88
ENDBRANCH  72  74
ENDBRANCH  69  70
ENDBRANCH  62  63
BRANCH  62  95
ATOM     95  CB  LEU A  10       5.185   7.735 -11.969  0.00  0.00    +0.029 C 
BRANCH  95  96
ATOM     96  CG  LEU A  10       5.983   8.906 -11.324  0.00  0.00    +0.002 C 
ATOM     97  CD2 LEU A  10       7.260   8.422 -10.758  0.00  0.00    +0.000 C 
ATOM     98  CD1 LEU A  10       6.305  10.016 -12.296  0.00  0.00    +0.000 C 
ENDBRANCH  95  96
ENDBRANCH  62  95
ENDBRANCH  60  62
ENDBRANCH  57  58
ENDBRANCH  55  57
ENDBRANCH  52  53
BRANCH  52  99
ATOM     99  CB  MET A   8       3.647  12.701  -7.027  0.00  0.00    +0.041 C 
BRANCH  99 100
ATOM    100  CG  MET A   8       5.126  12.510  -7.390  0.00  0.00    +0.060 C 
BRANCH 100 101
ATOM    101  SD  MET A   8       5.939  13.937  -8.177  0.00  0.00    -0.139 S 
ATOM    102  CE  MET A   8       6.703  14.563  -6.741  0.00  0.00    +0.069 C 
ENDBRANCH 100 101
ENDBRANCH  99 100
ENDBRANCH  52  99
ENDBRANCH   3  52
TORSDOF 41
REMARK  Name = ../refined-set-2016/3hb4/3hb4_pocket.pdb
REMARK  230 active torsions:
REMARK  status: ('A' for Active; 'I' for Inactive)
REMARK    1  A    between atoms: _1  and  _3
REMARK    2  A    between atoms: _3  and  _4
REMARK    3  A    between atoms: _3  and  _6
REMARK    4  A    between atoms: _6  and  _7
REMARK    5  A    between atoms: _9  and  _11
REMARK    6  A    between atoms: _11  and  _12
REMARK    7  A    between atoms: _11  and  _14
REMARK    8  A    between atoms: _14  and  _15
REMARK    9  A    between atoms: _18  and  _20
REMARK   10  A    between atoms: _20  and  _21
REMARK   11  A    between atoms: _20  and  _23
REMARK   12  A    between atoms: _23  and  _24
REMARK   13  A    between atoms: _29  and  _31
REMARK   14  A    between atoms: _31  and  _32
REMARK   15  A    between atoms: _35  and  _37
REMARK   16  A    between atoms: _37  and  _38
REMARK   17  A    between atoms: _40  and  _42
REMARK   18  A    between atoms: _42  and  _43
REMARK   19  A    between atoms: _42  and  _45
REMARK   20  A    between atoms: _45  and  _46
REMARK   21  A    between atoms: _49  and  _51
REMARK   22  A    between atoms: _51  and  _52
REMARK   23  A    between atoms: _54  and  _56
REMARK   24  A    between atoms: _56  and  _57
REMARK   25  A    between atoms: _56  and  _59
REMARK   26  A    between atoms: _59  and  _60
REMARK   27  A    between atoms: _63  and  _65
REMARK   28  A    between atoms: _65  and  _66
REMARK   29  A    between atoms: _65  and  _68
REMARK   30  A    between atoms: _68  and  _69
REMARK   31  A    between atoms: _72  and  _74
REMARK   32  A    between atoms: _74  and  _75
REMARK   33  A    between atoms: _77  and  _79
REMARK   34  A    between atoms: _79  and  _80
REMARK   35  A    between atoms: _79  and  _82
REMARK   36  A    between atoms: _82  and  _83
REMARK   37  A    between atoms: _88  and  _90
REMARK   38  A    between atoms: _90  and  _91
REMARK   39  A    between atoms: _90  and  _93
REMARK   40  A    between atoms: _93  and  _94
REMARK   41  A    between atoms: _97  and  _99
REMARK   42  A    between atoms: _99  and  _100
REMARK   43  A    between atoms: _102  and  _104
REMARK   44  A    between atoms: _104  and  _105
REMARK   45  A    between atoms: _104  and  _107
REMARK   46  A    between atoms: _107  and  _108
REMARK   47  A    between atoms: _110  and  _112
REMARK   48  A    between atoms: _112  and  _113
REMARK   49  A    between atoms: _112  and  _115
REMARK   50  A    between atoms: _118  and  _120
REMARK   51  A    between atoms: _120  and  _121
REMARK   52  A    between atoms: _123  and  _125
REMARK   53  A    between atoms: _125  and  _126
REMARK   54  A    between atoms: _128  and  _130
REMARK   55  A    between atoms: _130  and  _131
REMARK   56  A    between atoms: _130  and  _133
REMARK   57  A    between atoms: _133  and  _134
REMARK   58  A    between atoms: _137  and  _139
REMARK   59  A    between atoms: _139  and  _140
REMARK   60  A    between atoms: _139  and  _142
REMARK   61  A    between atoms: _142  and  _143
REMARK   62  A    between atoms: _143  and  _144
REMARK   63  A    between atoms: _146  and  _148
REMARK   64  A    between atoms: _148  and  _149
REMARK   65  A    between atoms: _151  and  _153
REMARK   66  A    between atoms: _153  and  _154
REMARK   67  A    between atoms: _153  and  _156
REMARK   68  A    between atoms: _156  and  _157
REMARK   69  A    between atoms: _161  and  _162
REMARK   70  A    between atoms: _167  and  _169
REMARK   71  A    between atoms: _169  and  _170
REMARK   72  A    between atoms: _169  and  _172
REMARK   73  A    between atoms: _172  and  _173
REMARK   74  A    between atoms: _179  and  _181
REMARK   75  A    between atoms: _181  and  _182
REMARK   76  A    between atoms: _181  and  _184
REMARK   77  A    between atoms: _184  and  _185
REMARK   78  A    between atoms: _190  and  _192
REMARK   79  A    between atoms: _192  and  _193
REMARK   80  A    between atoms: _192  and  _195
REMARK   81  A    between atoms: _195  and  _196
REMARK   82  A    between atoms: _201  and  _202
REMARK   83  A    between atoms: _204  and  _206
REMARK   84  A    between atoms: _206  and  _207
REMARK   85  A    between atoms: _206  and  _209
REMARK   86  A    between atoms: _211  and  _213
REMARK   87  A    between atoms: _213  and  _214
REMARK   88  A    between atoms: _213  and  _216
REMARK   89  A    between atoms: _216  and  _217
REMARK   90  A    between atoms: _217  and  _218
REMARK   91  A    between atoms: _218  and  _219
REMARK   92  A    between atoms: _219  and  _220
REMARK   93  A    between atoms: _224  and  _226
REMARK   94  A    between atoms: _226  and  _227
REMARK   95  A    between atoms: _226  and  _229
REMARK   96  A    between atoms: _229  and  _230
REMARK   97  A    between atoms: _230  and  _231
REMARK   98  A    between atoms: _234  and  _236
REMARK   99  A    between atoms: _236  and  _237
REMARK  100  A    between atoms: _236  and  _239
REMARK  101  A    between atoms: _241  and  _243
REMARK  102  A    between atoms: _243  and  _244
REMARK  103  A    between atoms: _247  and  _248
REMARK  104  A    between atoms: _253  and  _255
REMARK  105  A    between atoms: _255  and  _256
REMARK  106  A    between atoms: _255  and  _258
REMARK  107  A    between atoms: _261  and  _263
REMARK  108  A    between atoms: _263  and  _264
REMARK  109  A    between atoms: _263  and  _266
REMARK  110  A    between atoms: _266  and  _267
REMARK  111  A    between atoms: _270  and  _272
REMARK  112  A    between atoms: _272  and  _273
REMARK  113  A    between atoms: _276  and  _278
REMARK  114  A    between atoms: _278  and  _279
REMARK  115  A    between atoms: _278  and  _281
REMARK  116  A    between atoms: _281  and  _282
REMARK  117  A    between atoms: _288  and  _290
REMARK  118  A    between atoms: _290  and  _291
REMARK  119  A    between atoms: _290  and  _293
REMARK  120  A    between atoms: _293  and  _294
REMARK  121  A    between atoms: _294  and  _295
REMARK  122  A    between atoms: _297  and  _299
REMARK  123  A    between atoms: _299  and  _300
REMARK  124  A    between atoms: _299  and  _302
REMARK  125  A    between atoms: _302  and  _303
REMARK  126  A    between atoms: _303  and  _304
REMARK  127  A    between atoms: _307  and  _309
REMARK  128  A    between atoms: _309  and  _310
REMARK  129  A    between atoms: _309  and  _312
REMARK  130  A    between atoms: _312  and  _313
REMARK  131  A    between atoms: _313  and  _314
REMARK  132  A    between atoms: _314  and  _315
REMARK  133  A    between atoms: _315  and  _316
REMARK  134  A    between atoms: _320  and  _322
REMARK  135  A    between atoms: _322  and  _323
REMARK  136  A    between atoms: _322  and  _325
REMARK  137  A    between atoms: _328  and  _330
REMARK  138  A    between atoms: _330  and  _331
REMARK  139  A    between atoms: _330  and  _333
REMARK  140  A    between atoms: _333  and  _334
REMARK  141  A    between atoms: _337  and  _339
REMARK  142  A    between atoms: _339  and  _340
REMARK  143  A    between atoms: _339  and  _342
REMARK  144  A    between atoms: _342  and  _343
REMARK  145  A    between atoms: _348  and  _349
REMARK  146  A    between atoms: _351  and  _353
REMARK  147  A    between atoms: _353  and  _354
REMARK  148  A    between atoms: _353  and  _356
REMARK  149  A    between atoms: _356  and  _357
REMARK  150  A    between atoms: _360  and  _362
REMARK  151  A    between atoms: _362  and  _363
REMARK  152  A    between atoms: _362  and  _365
REMARK  153  A    between atoms: _365  and  _366
REMARK  154  A    between atoms: _371  and  _373
REMARK  155  A    between atoms: _373  and  _374
REMARK  156  A    between atoms: _373  and  _376
REMARK  157  A    between atoms: _376  and  _377
REMARK  158  A    between atoms: _379  and  _381
REMARK  159  A    between atoms: _381  and  _382
REMARK  160  A    between atoms: _381  and  _384
REMARK  161  A    between atoms: _384  and  _385
REMARK  162  A    between atoms: _385  and  _386
REMARK  163  A    between atoms: _386  and  _387
REMARK  164  A    between atoms: _387  and  _388
REMARK  165  A    between atoms: _392  and  _394
REMARK  166  A    between atoms: _394  and  _395
REMARK  167  A    between atoms: _394  and  _397
REMARK  168  A    between atoms: _397  and  _398
REMARK  169  A    between atoms: _398  and  _399
REMARK  170  A    between atoms: _404  and  _406
REMARK  171  A    between atoms: _406  and  _407
REMARK  172  A    between atoms: _406  and  _409
REMARK  173  A    between atoms: _412  and  _414
REMARK  174  A    between atoms: _414  and  _415
REMARK  175  A    between atoms: _414  and  _417
REMARK  176  A    between atoms: _417  and  _418
REMARK  177  A    between atoms: _424  and  _426
REMARK  178  A    between atoms: _426  and  _427
REMARK  179  A    between atoms: _430  and  _432
REMARK  180  A    between atoms: _432  and  _433
REMARK  181  A    between atoms: _432  and  _435
REMARK  182  A    between atoms: _435  and  _436
REMARK  183  A    between atoms: _439  and  _441
REMARK  184  A    between atoms: _441  and  _442
REMARK  185  A    between atoms: _441  and  _444
REMARK  186  A    between atoms: _444  and  _445
REMARK  187  A    between atoms: _445  and  _446
REMARK  188  A    between atoms: _446  and  _447
REMARK  189  A    between atoms: _456  and  _458
REMARK  190  A    between atoms: _458  and  _459
REMARK  191  A    between atoms: _458  and  _461
REMARK  192  A    between atoms: _461  and  _462
REMARK  193  A    between atoms: _468  and  _470
REMARK  194  A    between atoms: _470  and  _471
REMARK  195  A    between atoms: _470  and  _473
REMARK  196  A    between atoms: _473  and  _474
REMARK  197  A    between atoms: _477  and  _479
REMARK  198  A    between atoms: _479  and  _480
REMARK  199  A    between atoms: _479  and  _482
REMARK  200  A    between atoms: _482  and  _483
REMARK  201  A    between atoms: _488  and  _489
REMARK  202  A    between atoms: _491  and  _493
REMARK  203  A    between atoms: _493  and  _494
REMARK  204  A    between atoms: _497  and  _499
REMARK  205  A    between atoms: _499  and  _500
REMARK  206  A    between atoms: _499  and  _502
REMARK  207  A    between atoms: _502  and  _503
REMARK  208  A    between atoms: _503  and  _504
REMARK  209  A    between atoms: _506  and  _508
REMARK  210  A    between atoms: _508  and  _509
REMARK  211  A    between atoms: _508  and  _511
REMARK  212  A    between atoms: _511  and  _512
REMARK  213  A    between atoms: _517  and  _519
REMARK  214  A    between atoms: _519  and  _520
REMARK  215  A    between atoms: _519  and  _522
REMARK  216  A    between atoms: _522  and  _523
REMARK  217  A    between atoms: _523  and  _524
REMARK  218  A    between atoms: _524  and  _525
REMARK  219  A    between atoms: _534  and  _536
REMARK  220  A    between atoms: _536  and  _537
REMARK  221  A    between atoms: _536  and  _539
REMARK  222  A    between atoms: _539  and  _540
REMARK  223  A    between atoms: _540  and  _541
REMARK  224  A    between atoms: _544  and  _546
REMARK  225  A    between atoms: _546  and  _547
REMARK  226  A    between atoms: _546  and  _549
REMARK  227  A    between atoms: _552  and  _554
REMARK  228  A    between atoms: _554  and  _555
REMARK  229  A    between atoms: _554  and  _557
REMARK  230  A    between atoms: _557  and  _558
REMARK                            x       y       z     vdW  Elec       q    Type
REMARK                         _______ _______ _______ _____ _____    ______ ____
ROOT
ATOM      1  CA  TYR A   1       5.429   0.475  -7.213  0.00  0.00    +0.149 C 
ENDROOT
BRANCH   1   2
ATOM      2  C   TYR A   1       4.994   1.686  -6.361  0.00  0.00    +0.239 C 
ATOM      3  O   TYR A   1       5.347   1.814  -5.130  0.00  0.00    -0.274 OA
ATOM      4  N   CYS A   2       4.262   2.614  -6.993  0.00  0.00    -0.297 N 
ATOM      5  H   CYS A   2       4.013   2.476  -7.993  0.00  0.00    +0.150 HD
BRANCH   4   6
ATOM      6  CA  CYS A   2       3.800   3.839  -6.285  0.00  0.00    +0.149 C 
BRANCH   6   7
ATOM      7  C   CYS A   2       2.800   3.403  -5.171  0.00  0.00    +0.228 C 
ATOM      8  O   CYS A   2       2.851   3.922  -4.089  0.00  0.00    -0.286 OA
ENDBRANCH   6   7
BRANCH   6   9
ATOM      9  CB  CYS A   2       3.109   4.824  -7.260  0.00  0.00    +0.096 C 
ATOM     10  SG  CYS A   2       4.336   5.675  -8.332  0.00  0.00    -0.080 S 
ENDBRANCH   6   9
ENDBRANCH   4   6
ENDBRANCH   1   2
BRANCH   1  11
ATOM     11  N   TYR A   1       4.307  -0.092  -7.999  0.00  0.00    -0.238 NA
ATOM     12  H   TYR A   1       4.382  -0.208  -9.030  0.00  0.00    +0.142 HD
ENDBRANCH   1  11
BRANCH   1  13
ATOM     13  CB  TYR A   1       6.543   0.931  -8.210  0.00  0.00    +0.053 C 
BRANCH  13  14
ATOM     14  CG  TYR A   1       7.697   1.630  -7.537  0.00  0.00    -0.020 A 
ATOM     15  CD2 TYR A   1       8.678   0.907  -6.879  0.00  0.00    -0.001 A 
ATOM     16  CE2 TYR A   1       9.709   1.564  -6.168  0.00  0.00    +0.036 A 
ATOM     17  CZ  TYR A   1       9.775   2.942  -6.240  0.00  0.00    +0.134 A 
ATOM     18  CE1 TYR A   1       8.803   3.648  -6.911  0.00  0.00    +0.036 A 
ATOM     19  CD1 TYR A   1       7.748   2.965  -7.505  0.00  0.00    -0.001 A 
BRANCH  17  20
ATOM     20  OH  TYR A   1      10.787   3.636  -5.579  0.00  0.00    -0.506 OA
ATOM     21  HH  TYR A   1      10.387   4.222  -4.889  0.00  0.00    +0.292 HD
ENDBRANCH  17  20
ENDBRANCH  13  14
ENDBRANCH   1  13
TORSDOF 8
REMARK  Name = ../refined-set-2016/3hb4/3hb4_pocket.pdb
REMARK  230 active torsions:
REMARK  status: ('A' for Active; 'I' for Inactive)
REMARK    1  A    between atoms: _1  and  _3
REMARK    2  A    between atoms: _3  and  _4
REMARK    3  A    between atoms: _3  and  _6
REMARK    4  A    between atoms: _6  and  _7
REMARK    5  A    between atoms: _9  and  _11
REMARK    6  A    between atoms: _11  and  _12
REMARK    7  A    between atoms: _11  and  _14
REMARK    8  A    between atoms: _14  and  _15
REMARK    9  A    between atoms: _18  and  _20
REMARK   10  A    between atoms: _20  and  _21
REMARK   11  A    between atoms: _20  and  _23
REMARK   12  A    between atoms: _23  and  _24
REMARK   13  A    between atoms: _29  and  _31
REMARK   14  A    between atoms: _31  and  _32
REMARK   15  A    between atoms: _35  and  _37
REMARK   16  A    between atoms: _37  and  _38
REMARK   17  A    between atoms: _40  and  _42
REMARK   18  A    between atoms: _42  and  _43
REMARK   19  A    between atoms: _42  and  _45
REMARK   20  A    between atoms: _45  and  _46
REMARK   21  A    between atoms: _49  and  _51
REMARK   22  A    between atoms: _51  and  _52
REMARK   23  A    between atoms: _54  and  _56
REMARK   24  A    between atoms: _56  and  _57
REMARK   25  A    between atoms: _56  and  _59
REMARK   26  A    between atoms: _59  and  _60
REMARK   27  A    between atoms: _63  and  _65
REMARK   28  A    between atoms: _65  and  _66
REMARK   29  A    between atoms: _65  and  _68
REMARK   30  A    between atoms: _68  and  _69
REMARK   31  A    between atoms: _72  and  _74
REMARK   32  A    between atoms: _74  and  _75
REMARK   33  A    between atoms: _77  and  _79
REMARK   34  A    between atoms: _79  and  _80
REMARK   35  A    between atoms: _79  and  _82
REMARK   36  A    between atoms: _82  and  _83
REMARK   37  A    between atoms: _88  and  _90
REMARK   38  A    between atoms: _90  and  _91
REMARK   39  A    between atoms: _90  and  _93
REMARK   40  A    between atoms: _93  and  _94
REMARK   41  A    between atoms: _97  and  _99
REMARK   42  A    between atoms: _99  and  _100
REMARK   43  A    between atoms: _102  and  _104
REMARK   44  A    between atoms: _104  and  _105
REMARK   45  A    between atoms: _104  and  _107
REMARK   46  A    between atoms: _107  and  _108
REMARK   47  A    between atoms: _110  and  _112
REMARK   48  A    between atoms: _112  and  _113
REMARK   49  A    between atoms: _112  and  _115
REMARK   50  A    between atoms: _118  and  _120
REMARK   51  A    between atoms: _120  and  _121
REMARK   52  A    between atoms: _123  and  _125
REMARK   53  A    between atoms: _125  and  _126
REMARK   54  A    between atoms: _128  and  _130
REMARK   55  A    between atoms: _130  and  _131
REMARK   56  A    between atoms: _130  and  _133
REMARK   57  A    between atoms: _133  and  _134
REMARK   58  A    between atoms: _137  and  _139
REMARK   59  A    between atoms: _139  and  _140
REMARK   60  A    between atoms: _139  and  _142
REMARK   61  A    between atoms: _142  and  _143
REMARK   62  A    between atoms: _143  and  _144
REMARK   63  A    between atoms: _146  and  _148
REMARK   64  A    between atoms: _148  and  _149
REMARK   65  A    between atoms: _151  and  _153
REMARK   66  A    between atoms: _153  and  _154
REMARK   67  A    between atoms: _153  and  _156
REMARK   68  A    between atoms: _156  and  _157
REMARK   69  A    between atoms: _161  and  _162
REMARK   70  A    between atoms: _167  and  _169
REMARK   71  A    between atoms: _169  and  _170
REMARK   72  A    between atoms: _169  and  _172
REMARK   73  A    between atoms: _172  and  _173
REMARK   74  A    between atoms: _179  and  _181
REMARK   75  A    between atoms: _181  and  _182
REMARK   76  A    between atoms: _181  and  _184
REMARK   77  A    between atoms: _184  and  _185
REMARK   78  A    between atoms: _190  and  _192
REMARK   79  A    between atoms: _192  and  _193
REMARK   80  A    between atoms: _192  and  _195
REMARK   81  A    between atoms: _195  and  _196
REMARK   82  A    between atoms: _201  and  _202
REMARK   83  A    between atoms: _204  and  _206
REMARK   84  A    between atoms: _206  and  _207
REMARK   85  A    between atoms: _206  and  _209
REMARK   86  A    between atoms: _211  and  _213
REMARK   87  A    between atoms: _213  and  _214
REMARK   88  A    between atoms: _213  and  _216
REMARK   89  A    between atoms: _216  and  _217
REMARK   90  A    between atoms: _217  and  _218
REMARK   91  A    between atoms: _218  and  _219
REMARK   92  A    between atoms: _219  and  _220
REMARK   93  A    between atoms: _224  and  _226
REMARK   94  A    between atoms: _226  and  _227
REMARK   95  A    between atoms: _226  and  _229
REMARK   96  A    between atoms: _229  and  _230
REMARK   97  A    between atoms: _230  and  _231
REMARK   98  A    between atoms: _234  and  _236
REMARK   99  A    between atoms: _236  and  _237
REMARK  100  A    between atoms: _236  and  _239
REMARK  101  A    between atoms: _241  and  _243
REMARK  102  A    between atoms: _243  and  _244
REMARK  103  A    between atoms: _247  and  _248
REMARK  104  A    between atoms: _253  and  _255
REMARK  105  A    between atoms: _255  and  _256
REMARK  106  A    between atoms: _255  and  _258
REMARK  107  A    between atoms: _261  and  _263
REMARK  108  A    between atoms: _263  and  _264
REMARK  109  A    between atoms: _263  and  _266
REMARK  110  A    between atoms: _266  and  _267
REMARK  111  A    between atoms: _270  and  _272
REMARK  112  A    between atoms: _272  and  _273
REMARK  113  A    between atoms: _276  and  _278
REMARK  114  A    between atoms: _278  and  _279
REMARK  115  A    between atoms: _278  and  _281
REMARK  116  A    between atoms: _281  and  _282
REMARK  117  A    between atoms: _288  and  _290
REMARK  118  A    between atoms: _290  and  _291
REMARK  119  A    between atoms: _290  and  _293
REMARK  120  A    between atoms: _293  and  _294
REMARK  121  A    between atoms: _294  and  _295
REMARK  122  A    between atoms: _297  and  _299
REMARK  123  A    between atoms: _299  and  _300
REMARK  124  A    between atoms: _299  and  _302
REMARK  125  A    between atoms: _302  and  _303
REMARK  126  A    between atoms: _303  and  _304
REMARK  127  A    between atoms: _307  and  _309
REMARK  128  A    between atoms: _309  and  _310
REMARK  129  A    between atoms: _309  and  _312
REMARK  130  A    between atoms: _312  and  _313
REMARK  131  A    between atoms: _313  and  _314
REMARK  132  A    between atoms: _314  and  _315
REMARK  133  A    between atoms: _315  and  _316
REMARK  134  A    between atoms: _320  and  _322
REMARK  135  A    between atoms: _322  and  _323
REMARK  136  A    between atoms: _322  and  _325
REMARK  137  A    between atoms: _328  and  _330
REMARK  138  A    between atoms: _330  and  _331
REMARK  139  A    between atoms: _330  and  _333
REMARK  140  A    between atoms: _333  and  _334
REMARK  141  A    between atoms: _337  and  _339
REMARK  142  A    between atoms: _339  and  _340
REMARK  143  A    between atoms: _339  and  _342
REMARK  144  A    between atoms: _342  and  _343
REMARK  145  A    between atoms: _348  and  _349
REMARK  146  A    between atoms: _351  and  _353
REMARK  147  A    between atoms: _353  and  _354
REMARK  148  A    between atoms: _353  and  _356
REMARK  149  A    between atoms: _356  and  _357
REMARK  150  A    between atoms: _360  and  _362
REMARK  151  A    between atoms: _362  and  _363
REMARK  152  A    between atoms: _362  and  _365
REMARK  153  A    between atoms: _365  and  _366
REMARK  154  A    between atoms: _371  and  _373
REMARK  155  A    between atoms: _373  and  _374
REMARK  156  A    between atoms: _373  and  _376
REMARK  157  A    between atoms: _376  and  _377
REMARK  158  A    between atoms: _379  and  _381
REMARK  159  A    between atoms: _381  and  _382
REMARK  160  A    between atoms: _381  and  _384
REMARK  161  A    between atoms: _384  and  _385
REMARK  162  A    between atoms: _385  and  _386
REMARK  163  A    between atoms: _386  and  _387
REMARK  164  A    between atoms: _387  and  _388
REMARK  165  A    between atoms: _392  and  _394
REMARK  166  A    between atoms: _394  and  _395
REMARK  167  A    between atoms: _394  and  _397
REMARK  168  A    between atoms: _397  and  _398
REMARK  169  A    between atoms: _398  and  _399
REMARK  170  A    between atoms: _404  and  _406
REMARK  171  A    between atoms: _406  and  _407
REMARK  172  A    between atoms: _406  and  _409
REMARK  173  A    between atoms: _412  and  _414
REMARK  174  A    between atoms: _414  and  _415
REMARK  175  A    between atoms: _414  and  _417
REMARK  176  A    between atoms: _417  and  _418
REMARK  177  A    between atoms: _424  and  _426
REMARK  178  A    between atoms: _426  and  _427
REMARK  179  A    between atoms: _430  and  _432
REMARK  180  A    between atoms: _432  and  _433
REMARK  181  A    between atoms: _432  and  _435
REMARK  182  A    between atoms: _435  and  _436
REMARK  183  A    between atoms: _439  and  _441
REMARK  184  A    between atoms: _441  and  _442
REMARK  185  A    between atoms: _441  and  _444
REMARK  186  A    between atoms: _444  and  _445
REMARK  187  A    between atoms: _445  and  _446
REMARK  188  A    between atoms: _446  and  _447
REMARK  189  A    between atoms: _456  and  _458
REMARK  190  A    between atoms: _458  and  _459
REMARK  191  A    between atoms: _458  and  _461
REMARK  192  A    between atoms: _461  and  _462
REMARK  193  A    between atoms: _468  and  _470
REMARK  194  A    between atoms: _470  and  _471
REMARK  195  A    between atoms: _470  and  _473
REMARK  196  A    between atoms: _473  and  _474
REMARK  197  A    between atoms: _477  and  _479
REMARK  198  A    between atoms: _479  and  _480
REMARK  199  A    between atoms: _479  and  _482
REMARK  200  A    between atoms: _482  and  _483
REMARK  201  A    between atoms: _488  and  _489
REMARK  202  A    between atoms: _491  and  _493
REMARK  203  A    between atoms: _493  and  _494
REMARK  204  A    between atoms: _497  and  _499
REMARK  205  A    between atoms: _499  and  _500
REMARK  206  A    between atoms: _499  and  _502
REMARK  207  A    between atoms: _502  and  _503
REMARK  208  A    between atoms: _503  and  _504
REMARK  209  A    between atoms: _506  and  _508
REMARK  210  A    between atoms: _508  and  _509
REMARK  211  A    between atoms: _508  and  _511
REMARK  212  A    between atoms: _511  and  _512
REMARK  213  A    between atoms: _517  and  _519
REMARK  214  A    between atoms: _519  and  _520
REMARK  215  A    between atoms: _519  and  _522
REMARK  216  A    between atoms: _522  and  _523
REMARK  217  A    between atoms: _523  and  _524
REMARK  218  A    between atoms: _524  and  _525
REMARK  219  A    between atoms: _534  and  _536
REMARK  220  A    between atoms: _536  and  _537
REMARK  221  A    between atoms: _536  and  _539
REMARK  222  A    between atoms: _539  and  _540
REMARK  223  A    between atoms: _540  and  _541
REMARK  224  A    between atoms: _544  and  _546
REMARK  225  A    between atoms: _546  and  _547
REMARK  226  A    between atoms: _546  and  _549
REMARK  227  A    between atoms: _552  and  _554
REMARK  228  A    between atoms: _554  and  _555
REMARK  229  A    between atoms: _554  and  _557
REMARK  230  A    between atoms: _557  and  _558
REMARK                            x       y       z     vdW  Elec       q    Type
REMARK                         _______ _______ _______ _____ _____    ______ ____
ROOT
ATOM      1  CG  LYS A   1       7.961   3.213  -3.169  0.00  0.00    -0.000 C 
ENDROOT
BRANCH   1   2
ATOM      2  CB  LYS A   1       6.705   4.110  -2.797  0.00  0.00    +0.025 C 
BRANCH   2   3
ATOM      3  CA  LYS A   1       5.704   3.504  -1.800  0.00  0.00    +0.133 C 
BRANCH   3   4
ATOM      4  N   LYS A   1       5.077   2.327  -2.313  0.00  0.00    -0.239 NA
ATOM      5  H   LYS A   1       5.082   2.194  -3.344  0.00  0.00    +0.142 HD
ENDBRANCH   3   4
BRANCH   3   6
ATOM      6  C   LYS A   1       4.810   4.522  -1.012  0.00  0.00    +0.224 C 
ATOM      7  O   LYS A   1       5.195   4.912   0.037  0.00  0.00    -0.287 OA
ENDBRANCH   3   6
ENDBRANCH   2   3
ENDBRANCH   1   2
BRANCH   1   8
ATOM      8  CD  LYS A   1       8.636   2.619  -1.988  0.00  0.00    -0.024 C 
BRANCH   8   9
ATOM      9  CE  LYS A   1       9.970   2.000  -2.231  0.00  0.00    -0.086 C 
BRANCH   9  10
ATOM     10  NZ  LYS A   1      11.030   2.321  -1.257  0.00  0.00    +0.380 N 
ATOM     11  HZ1 LYS A   1      10.737   2.005  -0.311  0.00  0.00    -0.089 HD
ATOM     12  HZ2 LYS A   1      11.190   3.349  -1.246  0.00  0.00    -0.089 HD
ATOM     13  HZ3 LYS A   1      11.908   1.835  -1.530  0.00  0.00    -0.089 HD
ENDBRANCH   9  10
ENDBRANCH   8   9
ENDBRANCH   1   8
TORSDOF 7
REMARK  Name = ../refined-set-2016/3hb4/3hb4_pocket.pdb
REMARK  230 active torsions:
REMARK  status: ('A' for Active; 'I' for Inactive)
REMARK    1  A    between atoms: _1  and  _3
REMARK    2  A    between atoms: _3  and  _4
REMARK    3  A    between atoms: _3  and  _6
REMARK    4  A    between atoms: _6  and  _7
REMARK    5  A    between atoms: _9  and  _11
REMARK    6  A    between atoms: _11  and  _12
REMARK    7  A    between atoms: _11  and  _14
REMARK    8  A    between atoms: _14  and  _15
REMARK    9  A    between atoms: _18  and  _20
REMARK   10  A    between atoms: _20  and  _21
REMARK   11  A    between atoms: _20  and  _23
REMARK   12  A    between atoms: _23  and  _24
REMARK   13  A    between atoms: _29  and  _31
REMARK   14  A    between atoms: _31  and  _32
REMARK   15  A    between atoms: _35  and  _37
REMARK   16  A    between atoms: _37  and  _38
REMARK   17  A    between atoms: _40  and  _42
REMARK   18  A    between atoms: _42  and  _43
REMARK   19  A    between atoms: _42  and  _45
REMARK   20  A    between atoms: _45  and  _46
REMARK   21  A    between atoms: _49  and  _51
REMARK   22  A    between atoms: _51  and  _52
REMARK   23  A    between atoms: _54  and  _56
REMARK   24  A    between atoms: _56  and  _57
REMARK   25  A    between atoms: _56  and  _59
REMARK   26  A    between atoms: _59  and  _60
REMARK   27  A    between atoms: _63  and  _65
REMARK   28  A    between atoms: _65  and  _66
REMARK   29  A    between atoms: _65  and  _68
REMARK   30  A    between atoms: _68  and  _69
REMARK   31  A    between atoms: _72  and  _74
REMARK   32  A    between atoms: _74  and  _75
REMARK   33  A    between atoms: _77  and  _79
REMARK   34  A    between atoms: _79  and  _80
REMARK   35  A    between atoms: _79  and  _82
REMARK   36  A    between atoms: _82  and  _83
REMARK   37  A    between atoms: _88  and  _90
REMARK   38  A    between atoms: _90  and  _91
REMARK   39  A    between atoms: _90  and  _93
REMARK   40  A    between atoms: _93  and  _94
REMARK   41  A    between atoms: _97  and  _99
REMARK   42  A    between atoms: _99  and  _100
REMARK   43  A    between atoms: _102  and  _104
REMARK   44  A    between atoms: _104  and  _105
REMARK   45  A    between atoms: _104  and  _107
REMARK   46  A    between atoms: _107  and  _108
REMARK   47  A    between atoms: _110  and  _112
REMARK   48  A    between atoms: _112  and  _113
REMARK   49  A    between atoms: _112  and  _115
REMARK   50  A    between atoms: _118  and  _120
REMARK   51  A    between atoms: _120  and  _121
REMARK   52  A    between atoms: _123  and  _125
REMARK   53  A    between atoms: _125  and  _126
REMARK   54  A    between atoms: _128  and  _130
REMARK   55  A    between atoms: _130  and  _131
REMARK   56  A    between atoms: _130  and  _133
REMARK   57  A    between atoms: _133  and  _134
REMARK   58  A    between atoms: _137  and  _139
REMARK   59  A    between atoms: _139  and  _140
REMARK   60  A    between atoms: _139  and  _142
REMARK   61  A    between atoms: _142  and  _143
REMARK   62  A    between atoms: _143  and  _144
REMARK   63  A    between atoms: _146  and  _148
REMARK   64  A    between atoms: _148  and  _149
REMARK   65  A    between atoms: _151  and  _153
REMARK   66  A    between atoms: _153  and  _154
REMARK   67  A    between atoms: _153  and  _156
REMARK   68  A    between atoms: _156  and  _157
REMARK   69  A    between atoms: _161  and  _162
REMARK   70  A    between atoms: _167  and  _169
REMARK   71  A    between atoms: _169  and  _170
REMARK   72  A    between atoms: _169  and  _172
REMARK   73  A    between atoms: _172  and  _173
REMARK   74  A    between atoms: _179  and  _181
REMARK   75  A    between atoms: _181  and  _182
REMARK   76  A    between atoms: _181  and  _184
REMARK   77  A    between atoms: _184  and  _185
REMARK   78  A    between atoms: _190  and  _192
REMARK   79  A    between atoms: _192  and  _193
REMARK   80  A    between atoms: _192  and  _195
REMARK   81  A    between atoms: _195  and  _196
REMARK   82  A    between atoms: _201  and  _202
REMARK   83  A    between atoms: _204  and  _206
REMARK   84  A    between atoms: _206  and  _207
REMARK   85  A    between atoms: _206  and  _209
REMARK   86  A    between atoms: _211  and  _213
REMARK   87  A    between atoms: _213  and  _214
REMARK   88  A    between atoms: _213  and  _216
REMARK   89  A    between atoms: _216  and  _217
REMARK   90  A    between atoms: _217  and  _218
REMARK   91  A    between atoms: _218  and  _219
REMARK   92  A    between atoms: _219  and  _220
REMARK   93  A    between atoms: _224  and  _226
REMARK   94  A    between atoms: _226  and  _227
REMARK   95  A    between atoms: _226  and  _229
REMARK   96  A    between atoms: _229  and  _230
REMARK   97  A    between atoms: _230  and  _231
REMARK   98  A    between atoms: _234  and  _236
REMARK   99  A    between atoms: _236  and  _237
REMARK  100  A    between atoms: _236  and  _239
REMARK  101  A    between atoms: _241  and  _243
REMARK  102  A    between atoms: _243  and  _244
REMARK  103  A    between atoms: _247  and  _248
REMARK  104  A    between atoms: _253  and  _255
REMARK  105  A    between atoms: _255  and  _256
REMARK  106  A    between atoms: _255  and  _258
REMARK  107  A    between atoms: _261  and  _263
REMARK  108  A    between atoms: _263  and  _264
REMARK  109  A    between atoms: _263  and  _266
REMARK  110  A    between atoms: _266  and  _267
REMARK  111  A    between atoms: _270  and  _272
REMARK  112  A    between atoms: _272  and  _273
REMARK  113  A    between atoms: _276  and  _278
REMARK  114  A    between atoms: _278  and  _279
REMARK  115  A    between atoms: _278  and  _281
REMARK  116  A    between atoms: _281  and  _282
REMARK  117  A    between atoms: _288  and  _290
REMARK  118  A    between atoms: _290  and  _291
REMARK  119  A    between atoms: _290  and  _293
REMARK  120  A    between atoms: _293  and  _294
REMARK  121  A    between atoms: _294  and  _295
REMARK  122  A    between atoms: _297  and  _299
REMARK  123  A    between atoms: _299  and  _300
REMARK  124  A    between atoms: _299  and  _302
REMARK  125  A    between atoms: _302  and  _303
REMARK  126  A    between atoms: _303  and  _304
REMARK  127  A    between atoms: _307  and  _309
REMARK  128  A    between atoms: _309  and  _310
REMARK  129  A    between atoms: _309  and  _312
REMARK  130  A    between atoms: _312  and  _313
REMARK  131  A    between atoms: _313  and  _314
REMARK  132  A    between atoms: _314  and  _315
REMARK  133  A    between atoms: _315  and  _316
REMARK  134  A    between atoms: _320  and  _322
REMARK  135  A    between atoms: _322  and  _323
REMARK  136  A    between atoms: _322  and  _325
REMARK  137  A    between atoms: _328  and  _330
REMARK  138  A    between atoms: _330  and  _331
REMARK  139  A    between atoms: _330  and  _333
REMARK  140  A    between atoms: _333  and  _334
REMARK  141  A    between atoms: _337  and  _339
REMARK  142  A    between atoms: _339  and  _340
REMARK  143  A    between atoms: _339  and  _342
REMARK  144  A    between atoms: _342  and  _343
REMARK  145  A    between atoms: _348  and  _349
REMARK  146  A    between atoms: _351  and  _353
REMARK  147  A    between atoms: _353  and  _354
REMARK  148  A    between atoms: _353  and  _356
REMARK  149  A    between atoms: _356  and  _357
REMARK  150  A    between atoms: _360  and  _362
REMARK  151  A    between atoms: _362  and  _363
REMARK  152  A    between atoms: _362  and  _365
REMARK  153  A    between atoms: _365  and  _366
REMARK  154  A    between atoms: _371  and  _373
REMARK  155  A    between atoms: _373  and  _374
REMARK  156  A    between atoms: _373  and  _376
REMARK  157  A    between atoms: _376  and  _377
REMARK  158  A    between atoms: _379  and  _381
REMARK  159  A    between atoms: _381  and  _382
REMARK  160  A    between atoms: _381  and  _384
REMARK  161  A    between atoms: _384  and  _385
REMARK  162  A    between atoms: _385  and  _386
REMARK  163  A    between atoms: _386  and  _387
REMARK  164  A    between atoms: _387  and  _388
REMARK  165  A    between atoms: _392  and  _394
REMARK  166  A    between atoms: _394  and  _395
REMARK  167  A    between atoms: _394  and  _397
REMARK  168  A    between atoms: _397  and  _398
REMARK  169  A    between atoms: _398  and  _399
REMARK  170  A    between atoms: _404  and  _406
REMARK  171  A    between atoms: _406  and  _407
REMARK  172  A    between atoms: _406  and  _409
REMARK  173  A    between atoms: _412  and  _414
REMARK  174  A    between atoms: _414  and  _415
REMARK  175  A    between atoms: _414  and  _417
REMARK  176  A    between atoms: _417  and  _418
REMARK  177  A    between atoms: _424  and  _426
REMARK  178  A    between atoms: _426  and  _427
REMARK  179  A    between atoms: _430  and  _432
REMARK  180  A    between atoms: _432  and  _433
REMARK  181  A    between atoms: _432  and  _435
REMARK  182  A    between atoms: _435  and  _436
REMARK  183  A    between atoms: _439  and  _441
REMARK  184  A    between atoms: _441  and  _442
REMARK  185  A    between atoms: _441  and  _444
REMARK  186  A    between atoms: _444  and  _445
REMARK  187  A    between atoms: _445  and  _446
REMARK  188  A    between atoms: _446  and  _447
REMARK  189  A    between atoms: _456  and  _458
REMARK  190  A    between atoms: _458  and  _459
REMARK  191  A    between atoms: _458  and  _461
REMARK  192  A    between atoms: _461  and  _462
REMARK  193  A    between atoms: _468  and  _470
REMARK  194  A    between atoms: _470  and  _471
REMARK  195  A    between atoms: _470  and  _473
REMARK  196  A    between atoms: _473  and  _474
REMARK  197  A    between atoms: _477  and  _479
REMARK  198  A    between atoms: _479  and  _480
REMARK  199  A    between atoms: _479  and  _482
REMARK  200  A    between atoms: _482  and  _483
REMARK  201  A    between atoms: _488  and  _489
REMARK  202  A    between atoms: _491  and  _493
REMARK  203  A    between atoms: _493  and  _494
REMARK  204  A    between atoms: _497  and  _499
REMARK  205  A    between atoms: _499  and  _500
REMARK  206  A    between atoms: _499  and  _502
REMARK  207  A    between atoms: _502  and  _503
REMARK  208  A    between atoms: _503  and  _504
REMARK  209  A    between atoms: _506  and  _508
REMARK  210  A    between atoms: _508  and  _509
REMARK  211  A    between atoms: _508  and  _511
REMARK  212  A    between atoms: _511  and  _512
REMARK  213  A    between atoms: _517  and  _519
REMARK  214  A    between atoms: _519  and  _520
REMARK  215  A    between atoms: _519  and  _522
REMARK  216  A    between atoms: _522  and  _523
REMARK  217  A    between atoms: _523  and  _524
REMARK  218  A    between atoms: _524  and  _525
REMARK  219  A    between atoms: _534  and  _536
REMARK  220  A    between atoms: _536  and  _537
REMARK  221  A    between atoms: _536  and  _539
REMARK  222  A    between atoms: _539  and  _540
REMARK  223  A    between atoms: _540  and  _541
REMARK  224  A    between atoms: _544  and  _546
REMARK  225  A    between atoms: _546  and  _547
REMARK  226  A    between atoms: _546  and  _549
REMARK  227  A    between atoms: _552  and  _554
REMARK  228  A    between atoms: _554  and  _555
REMARK  229  A    between atoms: _554  and  _557
REMARK  230  A    between atoms: _557  and  _558
REMARK                            x       y       z     vdW  Elec       q    Type
REMARK                         _______ _______ _______ _____ _____    ______ ____
ROOT
ATOM      1  C   CYS A   2      14.129   9.919  -4.058  0.00  0.00    +0.242 C 
ATOM      2  O   CYS A   2      13.077   9.392  -4.420  0.00  0.00    -0.273 OA
ATOM      3  N   GLY A   3      14.755  10.809  -4.795  0.00  0.00    -0.295 N 
ATOM      4  H   GLY A   3      15.441  11.452  -4.350  0.00  0.00    +0.150 HD
ENDROOT
BRANCH   1   5
ATOM      5  CA  CYS A   2      14.798   9.578  -2.774  0.00  0.00    +0.160 C 
BRANCH   5   8
ATOM      6  C   GLU A   1      13.658  10.598  -0.811  0.00  0.00    +0.238 C 
ATOM      7  O   GLU A   1      14.262  11.686  -0.908  0.00  0.00    -0.274 OA
ATOM      8  N   CYS A   2      13.820   9.574  -1.673  0.00  0.00    -0.297 N 
ATOM      9  H   CYS A   2      13.220   8.733  -1.554  0.00  0.00    +0.150 HD
BRANCH   6  10
ATOM     10  CA  GLU A   1      12.658  10.349   0.322  0.00  0.00    +0.145 C 
BRANCH  10  11
ATOM     11  N   GLU A   1      13.444  10.337   1.534  0.00  0.00    -0.238 NA
ATOM     12  H   GLU A   1      13.648  11.227   2.032  0.00  0.00    +0.142 HD
ENDBRANCH  10  11
BRANCH  10  13
ATOM     13  CB  GLU A   1      11.618  11.455   0.396  0.00  0.00    +0.038 C 
BRANCH  13  14
ATOM     14  CG  GLU A   1      10.792  11.447   1.682  0.00  0.00    +0.116 C 
BRANCH  14  15
ATOM     15  CD  GLU A   1       9.647  10.461   1.589  0.00  0.00    +0.365 C 
ATOM     16  OE2 GLU A   1       8.693  10.556   2.373  0.00  0.00    -0.246 OA
ATOM     17  OE1 GLU A   1       9.730   9.584   0.728  0.00  0.00    -0.246 OA
ENDBRANCH  14  15
ENDBRANCH  13  14
ENDBRANCH  10  13
ENDBRANCH   6  10
ENDBRANCH   5   8
BRANCH   5  18
ATOM     18  CB  CYS A   2      15.549   8.209  -2.881  0.00  0.00    +0.098 C 
ATOM     19  SG  CYS A   2      16.332   7.788  -1.255  0.00  0.00    -0.080 S 
ENDBRANCH   5  18
ENDBRANCH   1   5
BRANCH   3  20
ATOM     20  CA  GLY A   3      14.498  10.910  -6.249  0.00  0.00    +0.176 C 
BRANCH  20  21
ATOM     21  C   GLY A   3      15.203   9.801  -6.992  0.00  0.00    +0.246 C 
ATOM     22  O   GLY A   3      15.518   8.772  -6.415  0.00  0.00    -0.273 OA
ATOM     23  N   PRO A   4      15.430   9.985  -8.318  0.00  0.00    -0.272 N 
ATOM     24  CA  PRO A   4      16.123   8.941  -9.078  0.00  0.00    +0.152 C 
ATOM     25  CB  PRO A   4      16.216   9.544 -10.489  0.00  0.00    +0.031 C 
ATOM     26  CG  PRO A   4      15.137  10.615 -10.529  0.00  0.00    +0.024 C 
ATOM     27  CD  PRO A   4      14.961  11.113  -9.145  0.00  0.00    +0.094 C 
BRANCH  24  28
ATOM     28  C   PRO A   4      17.517   8.791  -8.465  0.00  0.00    +0.241 C 
ATOM     29  O   PRO A   4      18.134   9.808  -8.116  0.00  0.00    -0.273 OA
ATOM     30  N   VAL A   5      17.983   7.553  -8.318  0.00  0.00    -0.298 N 
ATOM     31  H   VAL A   5      17.381   6.764  -8.629  0.00  0.00    +0.150 HD
BRANCH  30  32
ATOM     32  CA  VAL A   5      19.269   7.241  -7.755  0.00  0.00    +0.137 C 
BRANCH  32  33
ATOM     33  CB  VAL A   5      19.177   6.504  -6.328  0.00  0.00    +0.026 C 
ATOM     34  CG2 VAL A   5      18.496   7.327  -5.275  0.00  0.00    +0.002 C 
ATOM     35  CG1 VAL A   5      20.537   6.011  -5.803  0.00  0.00    +0.002 C 
ENDBRANCH  32  33
BRANCH  32  36
ATOM     36  C   VAL A   5      19.947   6.372  -8.806  0.00  0.00    +0.227 C 
ATOM     37  O   VAL A   5      19.357   5.458  -9.347  0.00  0.00    -0.286 OA
ENDBRANCH  32  36
ENDBRANCH  30  32
ENDBRANCH  24  28
ENDBRANCH  20  21
ENDBRANCH   3  20
TORSDOF 14
REMARK  Name = ../refined-set-2016/3hb4/3hb4_pocket.pdb
REMARK  230 active torsions:
REMARK  status: ('A' for Active; 'I' for Inactive)
REMARK    1  A    between atoms: _1  and  _3
REMARK    2  A    between atoms: _3  and  _4
REMARK    3  A    between atoms: _3  and  _6
REMARK    4  A    between atoms: _6  and  _7
REMARK    5  A    between atoms: _9  and  _11
REMARK    6  A    between atoms: _11  and  _12
REMARK    7  A    between atoms: _11  and  _14
REMARK    8  A    between atoms: _14  and  _15
REMARK    9  A    between atoms: _18  and  _20
REMARK   10  A    between atoms: _20  and  _21
REMARK   11  A    between atoms: _20  and  _23
REMARK   12  A    between atoms: _23  and  _24
REMARK   13  A    between atoms: _29  and  _31
REMARK   14  A    between atoms: _31  and  _32
REMARK   15  A    between atoms: _35  and  _37
REMARK   16  A    between atoms: _37  and  _38
REMARK   17  A    between atoms: _40  and  _42
REMARK   18  A    between atoms: _42  and  _43
REMARK   19  A    between atoms: _42  and  _45
REMARK   20  A    between atoms: _45  and  _46
REMARK   21  A    between atoms: _49  and  _51
REMARK   22  A    between atoms: _51  and  _52
REMARK   23  A    between atoms: _54  and  _56
REMARK   24  A    between atoms: _56  and  _57
REMARK   25  A    between atoms: _56  and  _59
REMARK   26  A    between atoms: _59  and  _60
REMARK   27  A    between atoms: _63  and  _65
REMARK   28  A    between atoms: _65  and  _66
REMARK   29  A    between atoms: _65  and  _68
REMARK   30  A    between atoms: _68  and  _69
REMARK   31  A    between atoms: _72  and  _74
REMARK   32  A    between atoms: _74  and  _75
REMARK   33  A    between atoms: _77  and  _79
REMARK   34  A    between atoms: _79  and  _80
REMARK   35  A    between atoms: _79  and  _82
REMARK   36  A    between atoms: _82  and  _83
REMARK   37  A    between atoms: _88  and  _90
REMARK   38  A    between atoms: _90  and  _91
REMARK   39  A    between atoms: _90  and  _93
REMARK   40  A    between atoms: _93  and  _94
REMARK   41  A    between atoms: _97  and  _99
REMARK   42  A    between atoms: _99  and  _100
REMARK   43  A    between atoms: _102  and  _104
REMARK   44  A    between atoms: _104  and  _105
REMARK   45  A    between atoms: _104  and  _107
REMARK   46  A    between atoms: _107  and  _108
REMARK   47  A    between atoms: _110  and  _112
REMARK   48  A    between atoms: _112  and  _113
REMARK   49  A    between atoms: _112  and  _115
REMARK   50  A    between atoms: _118  and  _120
REMARK   51  A    between atoms: _120  and  _121
REMARK   52  A    between atoms: _123  and  _125
REMARK   53  A    between atoms: _125  and  _126
REMARK   54  A    between atoms: _128  and  _130
REMARK   55  A    between atoms: _130  and  _131
REMARK   56  A    between atoms: _130  and  _133
REMARK   57  A    between atoms: _133  and  _134
REMARK   58  A    between atoms: _137  and  _139
REMARK   59  A    between atoms: _139  and  _140
REMARK   60  A    between atoms: _139  and  _142
REMARK   61  A    between atoms: _142  and  _143
REMARK   62  A    between atoms: _143  and  _144
REMARK   63  A    between atoms: _146  and  _148
REMARK   64  A    between atoms: _148  and  _149
REMARK   65  A    between atoms: _151  and  _153
REMARK   66  A    between atoms: _153  and  _154
REMARK   67  A    between atoms: _153  and  _156
REMARK   68  A    between atoms: _156  and  _157
REMARK   69  A    between atoms: _161  and  _162
REMARK   70  A    between atoms: _167  and  _169
REMARK   71  A    between atoms: _169  and  _170
REMARK   72  A    between atoms: _169  and  _172
REMARK   73  A    between atoms: _172  and  _173
REMARK   74  A    between atoms: _179  and  _181
REMARK   75  A    between atoms: _181  and  _182
REMARK   76  A    between atoms: _181  and  _184
REMARK   77  A    between atoms: _184  and  _185
REMARK   78  A    between atoms: _190  and  _192
REMARK   79  A    between atoms: _192  and  _193
REMARK   80  A    between atoms: _192  and  _195
REMARK   81  A    between atoms: _195  and  _196
REMARK   82  A    between atoms: _201  and  _202
REMARK   83  A    between atoms: _204  and  _206
REMARK   84  A    between atoms: _206  and  _207
REMARK   85  A    between atoms: _206  and  _209
REMARK   86  A    between atoms: _211  and  _213
REMARK   87  A    between atoms: _213  and  _214
REMARK   88  A    between atoms: _213  and  _216
REMARK   89  A    between atoms: _216  and  _217
REMARK   90  A    between atoms: _217  and  _218
REMARK   91  A    between atoms: _218  and  _219
REMARK   92  A    between atoms: _219  and  _220
REMARK   93  A    between atoms: _224  and  _226
REMARK   94  A    between atoms: _226  and  _227
REMARK   95  A    between atoms: _226  and  _229
REMARK   96  A    between atoms: _229  and  _230
REMARK   97  A    between atoms: _230  and  _231
REMARK   98  A    between atoms: _234  and  _236
REMARK   99  A    between atoms: _236  and  _237
REMARK  100  A    between atoms: _236  and  _239
REMARK  101  A    between atoms: _241  and  _243
REMARK  102  A    between atoms: _243  and  _244
REMARK  103  A    between atoms: _247  and  _248
REMARK  104  A    between atoms: _253  and  _255
REMARK  105  A    between atoms: _255  and  _256
REMARK  106  A    between atoms: _255  and  _258
REMARK  107  A    between atoms: _261  and  _263
REMARK  108  A    between atoms: _263  and  _264
REMARK  109  A    between atoms: _263  and  _266
REMARK  110  A    between atoms: _266  and  _267
REMARK  111  A    between atoms: _270  and  _272
REMARK  112  A    between atoms: _272  and  _273
REMARK  113  A    between atoms: _276  and  _278
REMARK  114  A    between atoms: _278  and  _279
REMARK  115  A    between atoms: _278  and  _281
REMARK  116  A    between atoms: _281  and  _282
REMARK  117  A    between atoms: _288  and  _290
REMARK  118  A    between atoms: _290  and  _291
REMARK  119  A    between atoms: _290  and  _293
REMARK  120  A    between atoms: _293  and  _294
REMARK  121  A    between atoms: _294  and  _295
REMARK  122  A    between atoms: _297  and  _299
REMARK  123  A    between atoms: _299  and  _300
REMARK  124  A    between atoms: _299  and  _302
REMARK  125  A    between atoms: _302  and  _303
REMARK  126  A    between atoms: _303  and  _304
REMARK  127  A    between atoms: _307  and  _309
REMARK  128  A    between atoms: _309  and  _310
REMARK  129  A    between atoms: _309  and  _312
REMARK  130  A    between atoms: _312  and  _313
REMARK  131  A    between atoms: _313  and  _314
REMARK  132  A    between atoms: _314  and  _315
REMARK  133  A    between atoms: _315  and  _316
REMARK  134  A    between atoms: _320  and  _322
REMARK  135  A    between atoms: _322  and  _323
REMARK  136  A    between atoms: _322  and  _325
REMARK  137  A    between atoms: _328  and  _330
REMARK  138  A    between atoms: _330  and  _331
REMARK  139  A    between atoms: _330  and  _333
REMARK  140  A    between atoms: _333  and  _334
REMARK  141  A    between atoms: _337  and  _339
REMARK  142  A    between atoms: _339  and  _340
REMARK  143  A    between atoms: _339  and  _342
REMARK  144  A    between atoms: _342  and  _343
REMARK  145  A    between atoms: _348  and  _349
REMARK  146  A    between atoms: _351  and  _353
REMARK  147  A    between atoms: _353  and  _354
REMARK  148  A    between atoms: _353  and  _356
REMARK  149  A    between atoms: _356  and  _357
REMARK  150  A    between atoms: _360  and  _362
REMARK  151  A    between atoms: _362  and  _363
REMARK  152  A    between atoms: _362  and  _365
REMARK  153  A    between atoms: _365  and  _366
REMARK  154  A    between atoms: _371  and  _373
REMARK  155  A    between atoms: _373  and  _374
REMARK  156  A    between atoms: _373  and  _376
REMARK  157  A    between atoms: _376  and  _377
REMARK  158  A    between atoms: _379  and  _381
REMARK  159  A    between atoms: _381  and  _382
REMARK  160  A    between atoms: _381  and  _384
REMARK  161  A    between atoms: _384  and  _385
REMARK  162  A    between atoms: _385  and  _386
REMARK  163  A    between atoms: _386  and  _387
REMARK  164  A    between atoms: _387  and  _388
REMARK  165  A    between atoms: _392  and  _394
REMARK  166  A    between atoms: _394  and  _395
REMARK  167  A    between atoms: _394  and  _397
REMARK  168  A    between atoms: _397  and  _398
REMARK  169  A    between atoms: _398  and  _399
REMARK  170  A    between atoms: _404  and  _406
REMARK  171  A    between atoms: _406  and  _407
REMARK  172  A    between atoms: _406  and  _409
REMARK  173  A    between atoms: _412  and  _414
REMARK  174  A    between atoms: _414  and  _415
REMARK  175  A    between atoms: _414  and  _417
REMARK  176  A    between atoms: _417  and  _418
REMARK  177  A    between atoms: _424  and  _426
REMARK  178  A    between atoms: _426  and  _427
REMARK  179  A    between atoms: _430  and  _432
REMARK  180  A    between atoms: _432  and  _433
REMARK  181  A    between atoms: _432  and  _435
REMARK  182  A    between atoms: _435  and  _436
REMARK  183  A    between atoms: _439  and  _441
REMARK  184  A    between atoms: _441  and  _442
REMARK  185  A    between atoms: _441  and  _444
REMARK  186  A    between atoms: _444  and  _445
REMARK  187  A    between atoms: _445  and  _446
REMARK  188  A    between atoms: _446  and  _447
REMARK  189  A    between atoms: _456  and  _458
REMARK  190  A    between atoms: _458  and  _459
REMARK  191  A    between atoms: _458  and  _461
REMARK  192  A    between atoms: _461  and  _462
REMARK  193  A    between atoms: _468  and  _470
REMARK  194  A    between atoms: _470  and  _471
REMARK  195  A    between atoms: _470  and  _473
REMARK  196  A    between atoms: _473  and  _474
REMARK  197  A    between atoms: _477  and  _479
REMARK  198  A    between atoms: _479  and  _480
REMARK  199  A    between atoms: _479  and  _482
REMARK  200  A    between atoms: _482  and  _483
REMARK  201  A    between atoms: _488  and  _489
REMARK  202  A    between atoms: _491  and  _493
REMARK  203  A    between atoms: _493  and  _494
REMARK  204  A    between atoms: _497  and  _499
REMARK  205  A    between atoms: _499  and  _500
REMARK  206  A    between atoms: _499  and  _502
REMARK  207  A    between atoms: _502  and  _503
REMARK  208  A    between atoms: _503  and  _504
REMARK  209  A    between atoms: _506  and  _508
REMARK  210  A    between atoms: _508  and  _509
REMARK  211  A    between atoms: _508  and  _511
REMARK  212  A    between atoms: _511  and  _512
REMARK  213  A    between atoms: _517  and  _519
REMARK  214  A    between atoms: _519  and  _520
REMARK  215  A    between atoms: _519  and  _522
REMARK  216  A    between atoms: _522  and  _523
REMARK  217  A    between atoms: _523  and  _524
REMARK  218  A    between atoms: _524  and  _525
REMARK  219  A    between atoms: _534  and  _536
REMARK  220  A    between atoms: _536  and  _537
REMARK  221  A    between atoms: _536  and  _539
REMARK  222  A    between atoms: _539  and  _540
REMARK  223  A    between atoms: _540  and  _541
REMARK  224  A    between atoms: _544  and  _546
REMARK  225  A    between atoms: _546  and  _547
REMARK  226  A    between atoms: _546  and  _549
REMARK  227  A    between atoms: _552  and  _554
REMARK  228  A    between atoms: _554  and  _555
REMARK  229  A    between atoms: _554  and  _557
REMARK  230  A    between atoms: _557  and  _558
REMARK                            x       y       z     vdW  Elec       q    Type
REMARK                         _______ _______ _______ _____ _____    ______ ____
ROOT
ATOM      1  C   MET A   4      15.485  -1.521 -14.108  0.00  0.00    +0.241 C 
ATOM      2  N   GLU A   5      16.023  -2.587 -13.542  0.00  0.00    -0.297 N 
ATOM      3  H   GLU A   5      16.051  -2.669 -12.506  0.00  0.00    +0.150 HD
ATOM      4  O   MET A   4      15.319  -1.447 -15.315  0.00  0.00    -0.273 OA
ENDROOT
BRANCH   1   5
ATOM      5  CA  MET A   4      15.037  -0.384 -13.221  0.00  0.00    +0.149 C 
BRANCH   5   8
ATOM      6  C   PHE A   3      16.585  -0.608 -11.404  0.00  0.00    +0.241 C 
ATOM      7  O   PHE A   3      16.264  -1.750 -11.207  0.00  0.00    -0.273 OA
ATOM      8  N   MET A   4      16.052   0.150 -12.321  0.00  0.00    -0.297 N 
ATOM      9  H   MET A   4      16.353   1.142 -12.411  0.00  0.00    +0.150 HD
BRANCH   6  10
ATOM     10  CA  PHE A   3      17.585   0.093 -10.531  0.00  0.00    +0.153 C 
BRANCH  10  13
ATOM     11  C   ALA A   2      19.815  -0.827 -10.950  0.00  0.00    +0.241 C 
ATOM     12  O   ALA A   2      19.514  -1.973 -10.666  0.00  0.00    -0.273 OA
ATOM     13  N   PHE A   3      18.909   0.124 -11.148  0.00  0.00    -0.297 N 
ATOM     14  H   PHE A   3      19.152   0.923 -11.767  0.00  0.00    +0.150 HD
BRANCH  11  15
ATOM     15  CA  ALA A   2      21.284  -0.435 -11.101  0.00  0.00    +0.149 C 
ATOM     16  CB  ALA A   2      22.147  -1.460 -10.478  0.00  0.00    +0.031 C 
BRANCH  15  19
ATOM     17  C   THR A   1      22.785   1.176  -9.986  0.00  0.00    +0.241 C 
ATOM     18  O   THR A   1      23.869   0.608 -10.217  0.00  0.00    -0.274 OA
ATOM     19  N   ALA A   2      21.646   0.893 -10.622  0.00  0.00    -0.297 N 
ATOM     20  H   ALA A   2      20.974   1.670 -10.786  0.00  0.00    +0.150 HD
BRANCH  17  21
ATOM     21  CA  THR A   1      22.682   2.326  -8.941  0.00  0.00    +0.172 C 
BRANCH  21  22
ATOM     22  N   THR A   1      22.088   3.522  -9.531  0.00  0.00    -0.236 NA
ATOM     23  H   THR A   1      21.217   3.423 -10.091  0.00  0.00    +0.142 HD
ENDBRANCH  21  22
BRANCH  21  24
ATOM     24  CB  THR A   1      21.797   1.764  -7.798  0.00  0.00    +0.135 C 
ATOM     25  CG2 THR A   1      21.575   2.756  -6.645  0.00  0.00    +0.034 C 
BRANCH  24  26
ATOM     26  OG1 THR A   1      20.536   1.401  -8.351  0.00  0.00    -0.383 OA
ATOM     27  HG1 THR A   1      19.955   1.039  -7.636  0.00  0.00    +0.210 HD
ENDBRANCH  24  26
ENDBRANCH  21  24
ENDBRANCH  17  21
ENDBRANCH  15  19
ENDBRANCH  11  15
ENDBRANCH  10  13
BRANCH  10  28
ATOM     28  CB  PHE A   3      17.063   1.515 -10.339  0.00  0.00    +0.055 C 
BRANCH  28  29
ATOM     29  CG  PHE A   3      17.098   1.989  -8.932  0.00  0.00    -0.020 A 
ATOM     30  CD2 PHE A   3      17.219   1.104  -7.893  0.00  0.00    -0.004 A 
ATOM     31  CE2 PHE A   3      17.257   1.557  -6.588  0.00  0.00    -0.000 A 
ATOM     32  CZ  PHE A   3      17.169   2.885  -6.327  0.00  0.00    -0.000 A 
ATOM     33  CE1 PHE A   3      17.045   3.766  -7.349  0.00  0.00    -0.000 A 
ATOM     34  CD1 PHE A   3      17.005   3.324  -8.644  0.00  0.00    -0.004 A 
ENDBRANCH  28  29
ENDBRANCH  10  28
ENDBRANCH   6  10
ENDBRANCH   5   8
BRANCH   5  35
ATOM     35  CB  MET A   4      14.489   0.707 -14.145  0.00  0.00    +0.041 C 
BRANCH  35  36
ATOM     36  CG  MET A   4      13.959   1.966 -13.477  0.00  0.00    +0.060 C 
BRANCH  36  37
ATOM     37  SD  MET A   4      13.847   3.351 -14.605  0.00  0.00    -0.139 S 
ATOM     38  CE  MET A   4      12.114   3.702 -14.468  0.00  0.00    +0.069 C 
ENDBRANCH  36  37
ENDBRANCH  35  36
ENDBRANCH   5  35
ENDBRANCH   1   5
BRANCH   2  39
ATOM     39  CA  GLU A   5      16.575  -3.645 -14.372  0.00  0.00    +0.149 C 
BRANCH  39  40
ATOM     40  C   GLU A   5      15.545  -4.653 -14.854  0.00  0.00    +0.241 C 
ATOM     41  N   LYS A   6      15.552  -5.846 -14.279  0.00  0.00    -0.297 N 
ATOM     42  H   LYS A   6      16.333  -6.104 -13.642  0.00  0.00    +0.150 HD
ATOM     43  O   GLU A   5      14.766  -4.363 -15.724  0.00  0.00    -0.273 OA
BRANCH  41  44
ATOM     44  CA  LYS A   6      14.489  -6.795 -14.524  0.00  0.00    +0.149 C 
BRANCH  44  45
ATOM     45  C   LYS A   6      13.354  -6.512 -13.594  0.00  0.00    +0.241 C 
ATOM     46  O   LYS A   6      12.891  -7.373 -12.863  0.00  0.00    -0.273 OA
ATOM     47  N   VAL A   7      12.918  -5.270 -13.645  0.00  0.00    -0.297 N 
ATOM     48  H   VAL A   7      13.503  -4.572 -14.147  0.00  0.00    +0.150 HD
BRANCH  47  49
ATOM     49  CA  VAL A   7      11.671  -4.806 -13.046  0.00  0.00    +0.149 C 
BRANCH  49  50
ATOM     50  C   VAL A   7      10.590  -4.734 -14.154  0.00  0.00    +0.241 C 
ATOM     51  O   VAL A   7       9.404  -4.522 -13.865  0.00  0.00    -0.273 OA
ATOM     52  N   LEU A   8      11.032  -4.943 -15.408  0.00  0.00    -0.298 N 
ATOM     53  H   LEU A   8      12.054  -5.085 -15.540  0.00  0.00    +0.150 HD
BRANCH  52  54
ATOM     54  CA  LEU A   8      10.164  -4.986 -16.627  0.00  0.00    +0.137 C 
BRANCH  54  55
ATOM     55  C   LEU A   8      10.408  -6.200 -17.585  0.00  0.00    +0.227 C 
ATOM     56  O   LEU A   8      11.548  -6.456 -18.015  0.00  0.00    -0.286 OA
ENDBRANCH  54  55
BRANCH  54  57
ATOM     57  CB  LEU A   8      10.232  -3.643 -17.424  0.00  0.00    +0.028 C 
BRANCH  57  58
ATOM     58  CG  LEU A   8      11.333  -3.284 -18.464  0.00  0.00    +0.002 C 
ATOM     59  CD2 LEU A   8      12.756  -3.286 -17.913  0.00  0.00    +0.000 C 
ATOM     60  CD1 LEU A   8      11.043  -1.939 -19.119  0.00  0.00    +0.000 C 
ENDBRANCH  57  58
ENDBRANCH  54  57
ENDBRANCH  52  54
ENDBRANCH  49  50
BRANCH  49  61
ATOM     61  CB  VAL A   7      11.847  -3.448 -12.285  0.00  0.00    +0.027 C 
ATOM     62  CG2 VAL A   7      12.857  -3.573 -11.119  0.00  0.00    +0.002 C 
ATOM     63  CG1 VAL A   7      12.242  -2.342 -13.236  0.00  0.00    +0.002 C 
ENDBRANCH  49  61
ENDBRANCH  47  49
ENDBRANCH  44  45
BRANCH  44  64
ATOM     64  CB  LYS A   6      14.972  -8.221 -14.353  0.00  0.00    +0.029 C 
BRANCH  64  65
ATOM     65  CG  LYS A   6      13.879  -9.245 -14.460  0.00  0.00    +0.000 C 
BRANCH  65  66
ATOM     66  CD  LYS A   6      14.013 -10.295 -13.406  0.00  0.00    -0.024 C 
BRANCH  66  67
ATOM     67  CE  LYS A   6      12.977 -11.378 -13.566  0.00  0.00    -0.086 C 
BRANCH  67  68
ATOM     68  NZ  LYS A   6      12.302 -11.644 -12.284  0.00  0.00    +0.380 N 
ATOM     69  HZ1 LYS A   6      13.004 -11.950 -11.581  0.00  0.00    -0.089 HD
ATOM     70  HZ2 LYS A   6      11.834 -10.776 -11.953  0.00  0.00    -0.089 HD
ATOM     71  HZ3 LYS A   6      11.592 -12.393 -12.416  0.00  0.00    -0.089 HD
ENDBRANCH  67  68
ENDBRANCH  66  67
ENDBRANCH  65  66
ENDBRANCH  64  65
ENDBRANCH  44  64
ENDBRANCH  41  44
ENDBRANCH  39  40
BRANCH  39  72
ATOM     72  CB  GLU A   5      17.735  -4.340 -13.683  0.00  0.00    +0.041 C 
BRANCH  72  73
ATOM     73  CG  GLU A   5      18.815  -3.395 -13.244  0.00  0.00    +0.116 C 
BRANCH  73  74
ATOM     74  CD  GLU A   5      19.239  -2.430 -14.317  0.00  0.00    +0.365 C 
ATOM     75  OE2 GLU A   5      20.088  -1.567 -14.046  0.00  0.00    -0.246 OA
ATOM     76  OE1 GLU A   5      18.732  -2.547 -15.436  0.00  0.00    -0.246 OA
ENDBRANCH  73  74
ENDBRANCH  72  73
ENDBRANCH  39  72
ENDBRANCH   2  39
TORSDOF 34
REMARK  Name = ../refined-set-2016/3hb4/3hb4_pocket.pdb
REMARK  230 active torsions:
REMARK  status: ('A' for Active; 'I' for Inactive)
REMARK    1  A    between atoms: _1  and  _3
REMARK    2  A    between atoms: _3  and  _4
REMARK    3  A    between atoms: _3  and  _6
REMARK    4  A    between atoms: _6  and  _7
REMARK    5  A    between atoms: _9  and  _11
REMARK    6  A    between atoms: _11  and  _12
REMARK    7  A    between atoms: _11  and  _14
REMARK    8  A    between atoms: _14  and  _15
REMARK    9  A    between atoms: _18  and  _20
REMARK   10  A    between atoms: _20  and  _21
REMARK   11  A    between atoms: _20  and  _23
REMARK   12  A    between atoms: _23  and  _24
REMARK   13  A    between atoms: _29  and  _31
REMARK   14  A    between atoms: _31  and  _32
REMARK   15  A    between atoms: _35  and  _37
REMARK   16  A    between atoms: _37  and  _38
REMARK   17  A    between atoms: _40  and  _42
REMARK   18  A    between atoms: _42  and  _43
REMARK   19  A    between atoms: _42  and  _45
REMARK   20  A    between atoms: _45  and  _46
REMARK   21  A    between atoms: _49  and  _51
REMARK   22  A    between atoms: _51  and  _52
REMARK   23  A    between atoms: _54  and  _56
REMARK   24  A    between atoms: _56  and  _57
REMARK   25  A    between atoms: _56  and  _59
REMARK   26  A    between atoms: _59  and  _60
REMARK   27  A    between atoms: _63  and  _65
REMARK   28  A    between atoms: _65  and  _66
REMARK   29  A    between atoms: _65  and  _68
REMARK   30  A    between atoms: _68  and  _69
REMARK   31  A    between atoms: _72  and  _74
REMARK   32  A    between atoms: _74  and  _75
REMARK   33  A    between atoms: _77  and  _79
REMARK   34  A    between atoms: _79  and  _80
REMARK   35  A    between atoms: _79  and  _82
REMARK   36  A    between atoms: _82  and  _83
REMARK   37  A    between atoms: _88  and  _90
REMARK   38  A    between atoms: _90  and  _91
REMARK   39  A    between atoms: _90  and  _93
REMARK   40  A    between atoms: _93  and  _94
REMARK   41  A    between atoms: _97  and  _99
REMARK   42  A    between atoms: _99  and  _100
REMARK   43  A    between atoms: _102  and  _104
REMARK   44  A    between atoms: _104  and  _105
REMARK   45  A    between atoms: _104  and  _107
REMARK   46  A    between atoms: _107  and  _108
REMARK   47  A    between atoms: _110  and  _112
REMARK   48  A    between atoms: _112  and  _113
REMARK   49  A    between atoms: _112  and  _115
REMARK   50  A    between atoms: _118  and  _120
REMARK   51  A    between atoms: _120  and  _121
REMARK   52  A    between atoms: _123  and  _125
REMARK   53  A    between atoms: _125  and  _126
REMARK   54  A    between atoms: _128  and  _130
REMARK   55  A    between atoms: _130  and  _131
REMARK   56  A    between atoms: _130  and  _133
REMARK   57  A    between atoms: _133  and  _134
REMARK   58  A    between atoms: _137  and  _139
REMARK   59  A    between atoms: _139  and  _140
REMARK   60  A    between atoms: _139  and  _142
REMARK   61  A    between atoms: _142  and  _143
REMARK   62  A    between atoms: _143  and  _144
REMARK   63  A    between atoms: _146  and  _148
REMARK   64  A    between atoms: _148  and  _149
REMARK   65  A    between atoms: _151  and  _153
REMARK   66  A    between atoms: _153  and  _154
REMARK   67  A    between atoms: _153  and  _156
REMARK   68  A    between atoms: _156  and  _157
REMARK   69  A    between atoms: _161  and  _162
REMARK   70  A    between atoms: _167  and  _169
REMARK   71  A    between atoms: _169  and  _170
REMARK   72  A    between atoms: _169  and  _172
REMARK   73  A    between atoms: _172  and  _173
REMARK   74  A    between atoms: _179  and  _181
REMARK   75  A    between atoms: _181  and  _182
REMARK   76  A    between atoms: _181  and  _184
REMARK   77  A    between atoms: _184  and  _185
REMARK   78  A    between atoms: _190  and  _192
REMARK   79  A    between atoms: _192  and  _193
REMARK   80  A    between atoms: _192  and  _195
REMARK   81  A    between atoms: _195  and  _196
REMARK   82  A    between atoms: _201  and  _202
REMARK   83  A    between atoms: _204  and  _206
REMARK   84  A    between atoms: _206  and  _207
REMARK   85  A    between atoms: _206  and  _209
REMARK   86  A    between atoms: _211  and  _213
REMARK   87  A    between atoms: _213  and  _214
REMARK   88  A    between atoms: _213  and  _216
REMARK   89  A    between atoms: _216  and  _217
REMARK   90  A    between atoms: _217  and  _218
REMARK   91  A    between atoms: _218  and  _219
REMARK   92  A    between atoms: _219  and  _220
REMARK   93  A    between atoms: _224  and  _226
REMARK   94  A    between atoms: _226  and  _227
REMARK   95  A    between atoms: _226  and  _229
REMARK   96  A    between atoms: _229  and  _230
REMARK   97  A    between atoms: _230  and  _231
REMARK   98  A    between atoms: _234  and  _236
REMARK   99  A    between atoms: _236  and  _237
REMARK  100  A    between atoms: _236  and  _239
REMARK  101  A    between atoms: _241  and  _243
REMARK  102  A    between atoms: _243  and  _244
REMARK  103  A    between atoms: _247  and  _248
REMARK  104  A    between atoms: _253  and  _255
REMARK  105  A    between atoms: _255  and  _256
REMARK  106  A    between atoms: _255  and  _258
REMARK  107  A    between atoms: _261  and  _263
REMARK  108  A    between atoms: _263  and  _264
REMARK  109  A    between atoms: _263  and  _266
REMARK  110  A    between atoms: _266  and  _267
REMARK  111  A    between atoms: _270  and  _272
REMARK  112  A    between atoms: _272  and  _273
REMARK  113  A    between atoms: _276  and  _278
REMARK  114  A    between atoms: _278  and  _279
REMARK  115  A    between atoms: _278  and  _281
REMARK  116  A    between atoms: _281  and  _282
REMARK  117  A    between atoms: _288  and  _290
REMARK  118  A    between atoms: _290  and  _291
REMARK  119  A    between atoms: _290  and  _293
REMARK  120  A    between atoms: _293  and  _294
REMARK  121  A    between atoms: _294  and  _295
REMARK  122  A    between atoms: _297  and  _299
REMARK  123  A    between atoms: _299  and  _300
REMARK  124  A    between atoms: _299  and  _302
REMARK  125  A    between atoms: _302  and  _303
REMARK  126  A    between atoms: _303  and  _304
REMARK  127  A    between atoms: _307  and  _309
REMARK  128  A    between atoms: _309  and  _310
REMARK  129  A    between atoms: _309  and  _312
REMARK  130  A    between atoms: _312  and  _313
REMARK  131  A    between atoms: _313  and  _314
REMARK  132  A    between atoms: _314  and  _315
REMARK  133  A    between atoms: _315  and  _316
REMARK  134  A    between atoms: _320  and  _322
REMARK  135  A    between atoms: _322  and  _323
REMARK  136  A    between atoms: _322  and  _325
REMARK  137  A    between atoms: _328  and  _330
REMARK  138  A    between atoms: _330  and  _331
REMARK  139  A    between atoms: _330  and  _333
REMARK  140  A    between atoms: _333  and  _334
REMARK  141  A    between atoms: _337  and  _339
REMARK  142  A    between atoms: _339  and  _340
REMARK  143  A    between atoms: _339  and  _342
REMARK  144  A    between atoms: _342  and  _343
REMARK  145  A    between atoms: _348  and  _349
REMARK  146  A    between atoms: _351  and  _353
REMARK  147  A    between atoms: _353  and  _354
REMARK  148  A    between atoms: _353  and  _356
REMARK  149  A    between atoms: _356  and  _357
REMARK  150  A    between atoms: _360  and  _362
REMARK  151  A    between atoms: _362  and  _363
REMARK  152  A    between atoms: _362  and  _365
REMARK  153  A    between atoms: _365  and  _366
REMARK  154  A    between atoms: _371  and  _373
REMARK  155  A    between atoms: _373  and  _374
REMARK  156  A    between atoms: _373  and  _376
REMARK  157  A    between atoms: _376  and  _377
REMARK  158  A    between atoms: _379  and  _381
REMARK  159  A    between atoms: _381  and  _382
REMARK  160  A    between atoms: _381  and  _384
REMARK  161  A    between atoms: _384  and  _385
REMARK  162  A    between atoms: _385  and  _386
REMARK  163  A    between atoms: _386  and  _387
REMARK  164  A    between atoms: _387  and  _388
REMARK  165  A    between atoms: _392  and  _394
REMARK  166  A    between atoms: _394  and  _395
REMARK  167  A    between atoms: _394  and  _397
REMARK  168  A    between atoms: _397  and  _398
REMARK  169  A    between atoms: _398  and  _399
REMARK  170  A    between atoms: _404  and  _406
REMARK  171  A    between atoms: _406  and  _407
REMARK  172  A    between atoms: _406  and  _409
REMARK  173  A    between atoms: _412  and  _414
REMARK  174  A    between atoms: _414  and  _415
REMARK  175  A    between atoms: _414  and  _417
REMARK  176  A    between atoms: _417  and  _418
REMARK  177  A    between atoms: _424  and  _426
REMARK  178  A    between atoms: _426  and  _427
REMARK  179  A    between atoms: _430  and  _432
REMARK  180  A    between atoms: _432  and  _433
REMARK  181  A    between atoms: _432  and  _435
REMARK  182  A    between atoms: _435  and  _436
REMARK  183  A    between atoms: _439  and  _441
REMARK  184  A    between atoms: _441  and  _442
REMARK  185  A    between atoms: _441  and  _444
REMARK  186  A    between atoms: _444  and  _445
REMARK  187  A    between atoms: _445  and  _446
REMARK  188  A    between atoms: _446  and  _447
REMARK  189  A    between atoms: _456  and  _458
REMARK  190  A    between atoms: _458  and  _459
REMARK  191  A    between atoms: _458  and  _461
REMARK  192  A    between atoms: _461  and  _462
REMARK  193  A    between atoms: _468  and  _470
REMARK  194  A    between atoms: _470  and  _471
REMARK  195  A    between atoms: _470  and  _473
REMARK  196  A    between atoms: _473  and  _474
REMARK  197  A    between atoms: _477  and  _479
REMARK  198  A    between atoms: _479  and  _480
REMARK  199  A    between atoms: _479  and  _482
REMARK  200  A    between atoms: _482  and  _483
REMARK  201  A    between atoms: _488  and  _489
REMARK  202  A    between atoms: _491  and  _493
REMARK  203  A    between atoms: _493  and  _494
REMARK  204  A    between atoms: _497  and  _499
REMARK  205  A    between atoms: _499  and  _500
REMARK  206  A    between atoms: _499  and  _502
REMARK  207  A    between atoms: _502  and  _503
REMARK  208  A    between atoms: _503  and  _504
REMARK  209  A    between atoms: _506  and  _508
REMARK  210  A    between atoms: _508  and  _509
REMARK  211  A    between atoms: _508  and  _511
REMARK  212  A    between atoms: _511  and  _512
REMARK  213  A    between atoms: _517  and  _519
REMARK  214  A    between atoms: _519  and  _520
REMARK  215  A    between atoms: _519  and  _522
REMARK  216  A    between atoms: _522  and  _523
REMARK  217  A    between atoms: _523  and  _524
REMARK  218  A    between atoms: _524  and  _525
REMARK  219  A    between atoms: _534  and  _536
REMARK  220  A    between atoms: _536  and  _537
REMARK  221  A    between atoms: _536  and  _539
REMARK  222  A    between atoms: _539  and  _540
REMARK  223  A    between atoms: _540  and  _541
REMARK  224  A    between atoms: _544  and  _546
REMARK  225  A    between atoms: _546  and  _547
REMARK  226  A    between atoms: _546  and  _549
REMARK  227  A    between atoms: _552  and  _554
REMARK  228  A    between atoms: _554  and  _555
REMARK  229  A    between atoms: _554  and  _557
REMARK  230  A    between atoms: _557  and  _558
REMARK                            x       y       z     vdW  Elec       q    Type
REMARK                         _______ _______ _______ _____ _____    ______ ____
ROOT
ATOM      1  CA  TYR A   1       7.254   7.017 -20.554  0.00  0.00    +0.149 C 
ENDROOT
BRANCH   1   2
ATOM      2  C   TYR A   1       8.731   6.610 -20.301  0.00  0.00    +0.239 C 
ATOM      3  O   TYR A   1       9.477   7.331 -19.654  0.00  0.00    -0.274 OA
ATOM      4  N   LEU A   2       9.132   5.442 -20.805  0.00  0.00    -0.298 N 
ATOM      5  H   LEU A   2       8.437   4.813 -21.255  0.00  0.00    +0.150 HD
BRANCH   4   6
ATOM      6  CA  LEU A   2      10.544   5.029 -20.734  0.00  0.00    +0.137 C 
BRANCH   6   7
ATOM      7  C   LEU A   2      11.546   6.054 -21.312  0.00  0.00    +0.227 C 
ATOM      8  O   LEU A   2      12.584   6.338 -20.722  0.00  0.00    -0.286 OA
ENDBRANCH   6   7
BRANCH   6   9
ATOM      9  CB  LEU A   2      10.773   3.682 -21.404  0.00  0.00    +0.028 C 
BRANCH   9  10
ATOM     10  CG  LEU A   2      10.008   2.524 -20.797  0.00  0.00    +0.002 C 
ATOM     11  CD2 LEU A   2      10.345   2.343 -19.282  0.00  0.00    +0.000 C 
ATOM     12  CD1 LEU A   2      10.269   1.250 -21.610  0.00  0.00    +0.000 C 
ENDBRANCH   9  10
ENDBRANCH   6   9
ENDBRANCH   4   6
ENDBRANCH   1   2
BRANCH   1  13
ATOM     13  N   TYR A   1       6.904   6.829 -21.989  0.00  0.00    -0.238 NA
ATOM     14  H   TYR A   1       6.150   6.165 -22.256  0.00  0.00    +0.142 HD
ENDBRANCH   1  13
BRANCH   1  15
ATOM     15  CB  TYR A   1       6.314   6.213 -19.570  0.00  0.00    +0.053 C 
BRANCH  15  16
ATOM     16  CG  TYR A   1       6.901   6.236 -18.151  0.00  0.00    -0.020 A 
ATOM     17  CD2 TYR A   1       6.785   7.358 -17.339  0.00  0.00    -0.001 A 
ATOM     18  CE2 TYR A   1       7.409   7.375 -16.035  0.00  0.00    +0.036 A 
ATOM     19  CZ  TYR A   1       8.153   6.249 -15.651  0.00  0.00    +0.134 A 
ATOM     20  CE1 TYR A   1       8.272   5.153 -16.482  0.00  0.00    +0.036 A 
ATOM     21  CD1 TYR A   1       7.669   5.150 -17.693  0.00  0.00    -0.001 A 
BRANCH  19  22
ATOM     22  OH  TYR A   1       8.795   6.153 -14.425  0.00  0.00    -0.506 OA
ATOM     23  HH  TYR A   1       8.648   6.986 -13.911  0.00  0.00    +0.292 HD
ENDBRANCH  19  22
ENDBRANCH  15  16
ENDBRANCH   1  15
TORSDOF 9
REMARK  Name = ../refined-set-2016/3hb4/3hb4_pocket.pdb
REMARK  230 active torsions:
REMARK  status: ('A' for Active; 'I' for Inactive)
REMARK    1  A    between atoms: _1  and  _3
REMARK    2  A    between atoms: _3  and  _4
REMARK    3  A    between atoms: _3  and  _6
REMARK    4  A    between atoms: _6  and  _7
REMARK    5  A    between atoms: _9  and  _11
REMARK    6  A    between atoms: _11  and  _12
REMARK    7  A    between atoms: _11  and  _14
REMARK    8  A    between atoms: _14  and  _15
REMARK    9  A    between atoms: _18  and  _20
REMARK   10  A    between atoms: _20  and  _21
REMARK   11  A    between atoms: _20  and  _23
REMARK   12  A    between atoms: _23  and  _24
REMARK   13  A    between atoms: _29  and  _31
REMARK   14  A    between atoms: _31  and  _32
REMARK   15  A    between atoms: _35  and  _37
REMARK   16  A    between atoms: _37  and  _38
REMARK   17  A    between atoms: _40  and  _42
REMARK   18  A    between atoms: _42  and  _43
REMARK   19  A    between atoms: _42  and  _45
REMARK   20  A    between atoms: _45  and  _46
REMARK   21  A    between atoms: _49  and  _51
REMARK   22  A    between atoms: _51  and  _52
REMARK   23  A    between atoms: _54  and  _56
REMARK   24  A    between atoms: _56  and  _57
REMARK   25  A    between atoms: _56  and  _59
REMARK   26  A    between atoms: _59  and  _60
REMARK   27  A    between atoms: _63  and  _65
REMARK   28  A    between atoms: _65  and  _66
REMARK   29  A    between atoms: _65  and  _68
REMARK   30  A    between atoms: _68  and  _69
REMARK   31  A    between atoms: _72  and  _74
REMARK   32  A    between atoms: _74  and  _75
REMARK   33  A    between atoms: _77  and  _79
REMARK   34  A    between atoms: _79  and  _80
REMARK   35  A    between atoms: _79  and  _82
REMARK   36  A    between atoms: _82  and  _83
REMARK   37  A    between atoms: _88  and  _90
REMARK   38  A    between atoms: _90  and  _91
REMARK   39  A    between atoms: _90  and  _93
REMARK   40  A    between atoms: _93  and  _94
REMARK   41  A    between atoms: _97  and  _99
REMARK   42  A    between atoms: _99  and  _100
REMARK   43  A    between atoms: _102  and  _104
REMARK   44  A    between atoms: _104  and  _105
REMARK   45  A    between atoms: _104  and  _107
REMARK   46  A    between atoms: _107  and  _108
REMARK   47  A    between atoms: _110  and  _112
REMARK   48  A    between atoms: _112  and  _113
REMARK   49  A    between atoms: _112  and  _115
REMARK   50  A    between atoms: _118  and  _120
REMARK   51  A    between atoms: _120  and  _121
REMARK   52  A    between atoms: _123  and  _125
REMARK   53  A    between atoms: _125  and  _126
REMARK   54  A    between atoms: _128  and  _130
REMARK   55  A    between atoms: _130  and  _131
REMARK   56  A    between atoms: _130  and  _133
REMARK   57  A    between atoms: _133  and  _134
REMARK   58  A    between atoms: _137  and  _139
REMARK   59  A    between atoms: _139  and  _140
REMARK   60  A    between atoms: _139  and  _142
REMARK   61  A    between atoms: _142  and  _143
REMARK   62  A    between atoms: _143  and  _144
REMARK   63  A    between atoms: _146  and  _148
REMARK   64  A    between atoms: _148  and  _149
REMARK   65  A    between atoms: _151  and  _153
REMARK   66  A    between atoms: _153  and  _154
REMARK   67  A    between atoms: _153  and  _156
REMARK   68  A    between atoms: _156  and  _157
REMARK   69  A    between atoms: _161  and  _162
REMARK   70  A    between atoms: _167  and  _169
REMARK   71  A    between atoms: _169  and  _170
REMARK   72  A    between atoms: _169  and  _172
REMARK   73  A    between atoms: _172  and  _173
REMARK   74  A    between atoms: _179  and  _181
REMARK   75  A    between atoms: _181  and  _182
REMARK   76  A    between atoms: _181  and  _184
REMARK   77  A    between atoms: _184  and  _185
REMARK   78  A    between atoms: _190  and  _192
REMARK   79  A    between atoms: _192  and  _193
REMARK   80  A    between atoms: _192  and  _195
REMARK   81  A    between atoms: _195  and  _196
REMARK   82  A    between atoms: _201  and  _202
REMARK   83  A    between atoms: _204  and  _206
REMARK   84  A    between atoms: _206  and  _207
REMARK   85  A    between atoms: _206  and  _209
REMARK   86  A    between atoms: _211  and  _213
REMARK   87  A    between atoms: _213  and  _214
REMARK   88  A    between atoms: _213  and  _216
REMARK   89  A    between atoms: _216  and  _217
REMARK   90  A    between atoms: _217  and  _218
REMARK   91  A    between atoms: _218  and  _219
REMARK   92  A    between atoms: _219  and  _220
REMARK   93  A    between atoms: _224  and  _226
REMARK   94  A    between atoms: _226  and  _227
REMARK   95  A    between atoms: _226  and  _229
REMARK   96  A    between atoms: _229  and  _230
REMARK   97  A    between atoms: _230  and  _231
REMARK   98  A    between atoms: _234  and  _236
REMARK   99  A    between atoms: _236  and  _237
REMARK  100  A    between atoms: _236  and  _239
REMARK  101  A    between atoms: _241  and  _243
REMARK  102  A    between atoms: _243  and  _244
REMARK  103  A    between atoms: _247  and  _248
REMARK  104  A    between atoms: _253  and  _255
REMARK  105  A    between atoms: _255  and  _256
REMARK  106  A    between atoms: _255  and  _258
REMARK  107  A    between atoms: _261  and  _263
REMARK  108  A    between atoms: _263  and  _264
REMARK  109  A    between atoms: _263  and  _266
REMARK  110  A    between atoms: _266  and  _267
REMARK  111  A    between atoms: _270  and  _272
REMARK  112  A    between atoms: _272  and  _273
REMARK  113  A    between atoms: _276  and  _278
REMARK  114  A    between atoms: _278  and  _279
REMARK  115  A    between atoms: _278  and  _281
REMARK  116  A    between atoms: _281  and  _282
REMARK  117  A    between atoms: _288  and  _290
REMARK  118  A    between atoms: _290  and  _291
REMARK  119  A    between atoms: _290  and  _293
REMARK  120  A    between atoms: _293  and  _294
REMARK  121  A    between atoms: _294  and  _295
REMARK  122  A    between atoms: _297  and  _299
REMARK  123  A    between atoms: _299  and  _300
REMARK  124  A    between atoms: _299  and  _302
REMARK  125  A    between atoms: _302  and  _303
REMARK  126  A    between atoms: _303  and  _304
REMARK  127  A    between atoms: _307  and  _309
REMARK  128  A    between atoms: _309  and  _310
REMARK  129  A    between atoms: _309  and  _312
REMARK  130  A    between atoms: _312  and  _313
REMARK  131  A    between atoms: _313  and  _314
REMARK  132  A    between atoms: _314  and  _315
REMARK  133  A    between atoms: _315  and  _316
REMARK  134  A    between atoms: _320  and  _322
REMARK  135  A    between atoms: _322  and  _323
REMARK  136  A    between atoms: _322  and  _325
REMARK  137  A    between atoms: _328  and  _330
REMARK  138  A    between atoms: _330  and  _331
REMARK  139  A    between atoms: _330  and  _333
REMARK  140  A    between atoms: _333  and  _334
REMARK  141  A    between atoms: _337  and  _339
REMARK  142  A    between atoms: _339  and  _340
REMARK  143  A    between atoms: _339  and  _342
REMARK  144  A    between atoms: _342  and  _343
REMARK  145  A    between atoms: _348  and  _349
REMARK  146  A    between atoms: _351  and  _353
REMARK  147  A    between atoms: _353  and  _354
REMARK  148  A    between atoms: _353  and  _356
REMARK  149  A    between atoms: _356  and  _357
REMARK  150  A    between atoms: _360  and  _362
REMARK  151  A    between atoms: _362  and  _363
REMARK  152  A    between atoms: _362  and  _365
REMARK  153  A    between atoms: _365  and  _366
REMARK  154  A    between atoms: _371  and  _373
REMARK  155  A    between atoms: _373  and  _374
REMARK  156  A    between atoms: _373  and  _376
REMARK  157  A    between atoms: _376  and  _377
REMARK  158  A    between atoms: _379  and  _381
REMARK  159  A    between atoms: _381  and  _382
REMARK  160  A    between atoms: _381  and  _384
REMARK  161  A    between atoms: _384  and  _385
REMARK  162  A    between atoms: _385  and  _386
REMARK  163  A    between atoms: _386  and  _387
REMARK  164  A    between atoms: _387  and  _388
REMARK  165  A    between atoms: _392  and  _394
REMARK  166  A    between atoms: _394  and  _395
REMARK  167  A    between atoms: _394  and  _397
REMARK  168  A    between atoms: _397  and  _398
REMARK  169  A    between atoms: _398  and  _399
REMARK  170  A    between atoms: _404  and  _406
REMARK  171  A    between atoms: _406  and  _407
REMARK  172  A    between atoms: _406  and  _409
REMARK  173  A    between atoms: _412  and  _414
REMARK  174  A    between atoms: _414  and  _415
REMARK  175  A    between atoms: _414  and  _417
REMARK  176  A    between atoms: _417  and  _418
REMARK  177  A    between atoms: _424  and  _426
REMARK  178  A    between atoms: _426  and  _427
REMARK  179  A    between atoms: _430  and  _432
REMARK  180  A    between atoms: _432  and  _433
REMARK  181  A    between atoms: _432  and  _435
REMARK  182  A    between atoms: _435  and  _436
REMARK  183  A    between atoms: _439  and  _441
REMARK  184  A    between atoms: _441  and  _442
REMARK  185  A    between atoms: _441  and  _444
REMARK  186  A    between atoms: _444  and  _445
REMARK  187  A    between atoms: _445  and  _446
REMARK  188  A    between atoms: _446  and  _447
REMARK  189  A    between atoms: _456  and  _458
REMARK  190  A    between atoms: _458  and  _459
REMARK  191  A    between atoms: _458  and  _461
REMARK  192  A    between atoms: _461  and  _462
REMARK  193  A    between atoms: _468  and  _470
REMARK  194  A    between atoms: _470  and  _471
REMARK  195  A    between atoms: _470  and  _473
REMARK  196  A    between atoms: _473  and  _474
REMARK  197  A    between atoms: _477  and  _479
REMARK  198  A    between atoms: _479  and  _480
REMARK  199  A    between atoms: _479  and  _482
REMARK  200  A    between atoms: _482  and  _483
REMARK  201  A    between atoms: _488  and  _489
REMARK  202  A    between atoms: _491  and  _493
REMARK  203  A    between atoms: _493  and  _494
REMARK  204  A    between atoms: _497  and  _499
REMARK  205  A    between atoms: _499  and  _500
REMARK  206  A    between atoms: _499  and  _502
REMARK  207  A    between atoms: _502  and  _503
REMARK  208  A    between atoms: _503  and  _504
REMARK  209  A    between atoms: _506  and  _508
REMARK  210  A    between atoms: _508  and  _509
REMARK  211  A    between atoms: _508  and  _511
REMARK  212  A    between atoms: _511  and  _512
REMARK  213  A    between atoms: _517  and  _519
REMARK  214  A    between atoms: _519  and  _520
REMARK  215  A    between atoms: _519  and  _522
REMARK  216  A    between atoms: _522  and  _523
REMARK  217  A    between atoms: _523  and  _524
REMARK  218  A    between atoms: _524  and  _525
REMARK  219  A    between atoms: _534  and  _536
REMARK  220  A    between atoms: _536  and  _537
REMARK  221  A    between atoms: _536  and  _539
REMARK  222  A    between atoms: _539  and  _540
REMARK  223  A    between atoms: _540  and  _541
REMARK  224  A    between atoms: _544  and  _546
REMARK  225  A    between atoms: _546  and  _547
REMARK  226  A    between atoms: _546  and  _549
REMARK  227  A    between atoms: _552  and  _554
REMARK  228  A    between atoms: _554  and  _555
REMARK  229  A    between atoms: _554  and  _557
REMARK  230  A    between atoms: _557  and  _558
REMARK                            x       y       z     vdW  Elec       q    Type
REMARK                         _______ _______ _______ _____ _____    ______ ____
ROOT
ATOM      1  C   LYS A   3      16.284   9.280 -19.204  0.00  0.00    +0.241 C 
ATOM      2  O   LYS A   3      17.357   9.526 -18.695  0.00  0.00    -0.273 OA
ATOM      3  N   GLN A   4      15.500  10.223 -19.713  0.00  0.00    -0.297 N 
ATOM      4  H   GLN A   4      14.576   9.960 -20.111  0.00  0.00    +0.150 HD
ENDROOT
BRANCH   3   5
ATOM      5  CA  GLN A   4      15.911  11.616 -19.723  0.00  0.00    +0.149 C 
BRANCH   5   6
ATOM      6  C   GLN A   4      15.989  12.213 -18.324  0.00  0.00    +0.241 C 
ATOM      7  N   VAL A   5      14.939  12.006 -17.536  0.00  0.00    -0.297 N 
ATOM      8  H   VAL A   5      14.115  11.504 -17.924  0.00  0.00    +0.150 HD
ATOM      9  O   GLN A   4      16.946  12.902 -17.988  0.00  0.00    -0.273 OA
BRANCH   7  10
ATOM     10  CA  VAL A   5      14.894  12.460 -16.131  0.00  0.00    +0.149 C 
BRANCH  10  11
ATOM     11  C   VAL A   5      16.066  11.892 -15.304  0.00  0.00    +0.241 C 
ATOM     12  O   VAL A   5      16.683  12.598 -14.499  0.00  0.00    -0.273 OA
ATOM     13  N   PHE A   6      16.382  10.615 -15.522  0.00  0.00    -0.298 N 
ATOM     14  H   PHE A   6      15.852  10.069 -16.230  0.00  0.00    +0.150 HD
BRANCH  13  15
ATOM     15  CA  PHE A   6      17.450   9.982 -14.788  0.00  0.00    +0.141 C 
BRANCH  15  16
ATOM     16  C   PHE A   6      18.769  10.604 -15.149  0.00  0.00    +0.227 C 
ATOM     17  O   PHE A   6      19.602  10.826 -14.264  0.00  0.00    -0.286 OA
ENDBRANCH  15  16
BRANCH  15  18
ATOM     18  CB  PHE A   6      17.493   8.483 -15.034  0.00  0.00    +0.054 C 
BRANCH  18  19
ATOM     19  CG  PHE A   6      16.857   7.691 -13.922  0.00  0.00    -0.020 A 
ATOM     20  CD2 PHE A   6      17.643   7.074 -12.928  0.00  0.00    -0.004 A 
ATOM     21  CE2 PHE A   6      17.027   6.332 -11.859  0.00  0.00    -0.000 A 
ATOM     22  CZ  PHE A   6      15.617   6.253 -11.778  0.00  0.00    -0.000 A 
ATOM     23  CE1 PHE A   6      14.838   6.902 -12.733  0.00  0.00    -0.000 A 
ATOM     24  CD1 PHE A   6      15.468   7.627 -13.814  0.00  0.00    -0.004 A 
ENDBRANCH  18  19
ENDBRANCH  15  18
ENDBRANCH  13  15
ENDBRANCH  10  11
BRANCH  10  25
ATOM     25  CB  VAL A   5      13.513  12.095 -15.491  0.00  0.00    +0.027 C 
ATOM     26  CG2 VAL A   5      13.536  12.180 -13.968  0.00  0.00    +0.002 C 
ATOM     27  CG1 VAL A   5      12.389  12.954 -16.122  0.00  0.00    +0.002 C 
ENDBRANCH  10  25
ENDBRANCH   7  10
ENDBRANCH   5   6
BRANCH   5  28
ATOM     28  CB  GLN A   4      14.979  12.481 -20.609  0.00  0.00    +0.039 C 
BRANCH  28  29
ATOM     29  CG  GLN A   4      15.499  13.899 -20.848  0.00  0.00    +0.087 C 
BRANCH  29  30
ATOM     30  CD  GLN A   4      16.839  13.853 -21.628  0.00  0.00    +0.219 C 
ATOM     31  NE2 GLN A   4      17.813  14.714 -21.229  0.00  0.00    -0.329 N 
ATOM     32 HE21 GLN A   4      17.634  15.374 -20.445  0.00  0.00    +0.145 HD
ATOM     33 HE22 GLN A   4      18.736  14.712 -21.707  0.00  0.00    +0.145 HD
ATOM     34  OE1 GLN A   4      16.996  13.032 -22.569  0.00  0.00    -0.275 OA
ENDBRANCH  29  30
ENDBRANCH  28  29
ENDBRANCH   5  28
ENDBRANCH   3   5
BRANCH   1  35
ATOM     35  CA  LYS A   3      15.769   7.852 -19.217  0.00  0.00    +0.149 C 
BRANCH  35  38
ATOM     36  C   SER A   2      13.854   8.392 -17.753  0.00  0.00    +0.243 C 
ATOM     37  O   SER A   2      14.594   8.921 -16.911  0.00  0.00    -0.273 OA
ATOM     38  N   LYS A   3      14.339   7.777 -18.824  0.00  0.00    -0.297 N 
ATOM     39  H   LYS A   3      13.690   7.218 -19.414  0.00  0.00    +0.150 HD
BRANCH  36  40
ATOM     40  CA  SER A   2      12.303   8.412 -17.580  0.00  0.00    +0.178 C 
BRANCH  40  42
ATOM     41  C   HIS A   1      11.833  10.084 -19.303  0.00  0.00    +0.239 C 
ATOM     42  N   SER A   2      11.615   8.901 -18.769  0.00  0.00    -0.295 N 
ATOM     43  H   SER A   2      10.913   8.280 -19.220  0.00  0.00    +0.150 HD
ATOM     44  O   HIS A   1      12.564  10.883 -18.791  0.00  0.00    -0.274 OA
BRANCH  41  45
ATOM     45  CA  HIS A   1      11.144  10.392 -20.627  0.00  0.00    +0.151 C 
BRANCH  45  46
ATOM     46  N   HIS A   1      11.124   9.306 -21.611  0.00  0.00    -0.238 NA
ATOM     47  H   HIS A   1      10.211   8.931 -21.938  0.00  0.00    +0.142 HD
ENDBRANCH  45  46
BRANCH  45  48
ATOM     48  CB  HIS A   1       9.744  10.811 -20.363  0.00  0.00    +0.074 C 
BRANCH  48  49
ATOM     49  CG  HIS A   1       9.622  11.897 -19.354  0.00  0.00    +0.082 A 
ATOM     50  ND1 HIS A   1       9.179  11.665 -18.074  0.00  0.00    -0.227 NA
ATOM     51  CE1 HIS A   1       9.112  12.805 -17.415  0.00  0.00    +0.199 A 
ATOM     52  NE2 HIS A   1       9.512  13.769 -18.224  0.00  0.00    -0.221 NA
ATOM     53  CD2 HIS A   1       9.829  13.228 -19.448  0.00  0.00    +0.115 A 
ENDBRANCH  48  49
ENDBRANCH  45  48
ENDBRANCH  41  45
ENDBRANCH  40  42
BRANCH  40  54
ATOM     54  CB  SER A   2      11.748   7.024 -17.269  0.00  0.00    +0.166 C 
BRANCH  54  55
ATOM     55  OG  SER A   2      12.479   6.401 -16.249  0.00  0.00    -0.380 OA
ATOM     56  H   SER A   2      12.097   5.506 -16.070  0.00  0.00    +0.211 HD
ENDBRANCH  54  55
ENDBRANCH  40  54
ENDBRANCH  36  40
ENDBRANCH  35  38
BRANCH  35  57
ATOM     57  CB  LYS A   3      16.001   7.265 -20.600  0.00  0.00    +0.029 C 
BRANCH  57  58
ATOM     58  CG  LYS A   3      16.401   5.794 -20.654  0.00  0.00    +0.000 C 
BRANCH  58  59
ATOM     59  CD  LYS A   3      15.224   4.886 -20.235  0.00  0.00    -0.024 C 
BRANCH  59  60
ATOM     60  CE  LYS A   3      15.598   3.387 -20.179  0.00  0.00    -0.086 C 
BRANCH  60  61
ATOM     61  NZ  LYS A   3      14.463   2.559 -19.606  0.00  0.00    +0.380 N 
ATOM     62  HZ1 LYS A   3      14.251   2.885 -18.641  0.00  0.00    -0.089 HD
ATOM     63  HZ2 LYS A   3      14.744   1.558 -19.581  0.00  0.00    -0.089 HD
ATOM     64  HZ3 LYS A   3      13.619   2.669 -20.204  0.00  0.00    -0.089 HD
ENDBRANCH  60  61
ENDBRANCH  59  60
ENDBRANCH  58  59
ENDBRANCH  57  58
ENDBRANCH  35  57
ENDBRANCH   1  35
TORSDOF 27
REMARK  Name = ../refined-set-2016/3hb4/3hb4_pocket.pdb
REMARK  230 active torsions:
REMARK  status: ('A' for Active; 'I' for Inactive)
REMARK    1  A    between atoms: _1  and  _3
REMARK    2  A    between atoms: _3  and  _4
REMARK    3  A    between atoms: _3  and  _6
REMARK    4  A    between atoms: _6  and  _7
REMARK    5  A    between atoms: _9  and  _11
REMARK    6  A    between atoms: _11  and  _12
REMARK    7  A    between atoms: _11  and  _14
REMARK    8  A    between atoms: _14  and  _15
REMARK    9  A    between atoms: _18  and  _20
REMARK   10  A    between atoms: _20  and  _21
REMARK   11  A    between atoms: _20  and  _23
REMARK   12  A    between atoms: _23  and  _24
REMARK   13  A    between atoms: _29  and  _31
REMARK   14  A    between atoms: _31  and  _32
REMARK   15  A    between atoms: _35  and  _37
REMARK   16  A    between atoms: _37  and  _38
REMARK   17  A    between atoms: _40  and  _42
REMARK   18  A    between atoms: _42  and  _43
REMARK   19  A    between atoms: _42  and  _45
REMARK   20  A    between atoms: _45  and  _46
REMARK   21  A    between atoms: _49  and  _51
REMARK   22  A    between atoms: _51  and  _52
REMARK   23  A    between atoms: _54  and  _56
REMARK   24  A    between atoms: _56  and  _57
REMARK   25  A    between atoms: _56  and  _59
REMARK   26  A    between atoms: _59  and  _60
REMARK   27  A    between atoms: _63  and  _65
REMARK   28  A    between atoms: _65  and  _66
REMARK   29  A    between atoms: _65  and  _68
REMARK   30  A    between atoms: _68  and  _69
REMARK   31  A    between atoms: _72  and  _74
REMARK   32  A    between atoms: _74  and  _75
REMARK   33  A    between atoms: _77  and  _79
REMARK   34  A    between atoms: _79  and  _80
REMARK   35  A    between atoms: _79  and  _82
REMARK   36  A    between atoms: _82  and  _83
REMARK   37  A    between atoms: _88  and  _90
REMARK   38  A    between atoms: _90  and  _91
REMARK   39  A    between atoms: _90  and  _93
REMARK   40  A    between atoms: _93  and  _94
REMARK   41  A    between atoms: _97  and  _99
REMARK   42  A    between atoms: _99  and  _100
REMARK   43  A    between atoms: _102  and  _104
REMARK   44  A    between atoms: _104  and  _105
REMARK   45  A    between atoms: _104  and  _107
REMARK   46  A    between atoms: _107  and  _108
REMARK   47  A    between atoms: _110  and  _112
REMARK   48  A    between atoms: _112  and  _113
REMARK   49  A    between atoms: _112  and  _115
REMARK   50  A    between atoms: _118  and  _120
REMARK   51  A    between atoms: _120  and  _121
REMARK   52  A    between atoms: _123  and  _125
REMARK   53  A    between atoms: _125  and  _126
REMARK   54  A    between atoms: _128  and  _130
REMARK   55  A    between atoms: _130  and  _131
REMARK   56  A    between atoms: _130  and  _133
REMARK   57  A    between atoms: _133  and  _134
REMARK   58  A    between atoms: _137  and  _139
REMARK   59  A    between atoms: _139  and  _140
REMARK   60  A    between atoms: _139  and  _142
REMARK   61  A    between atoms: _142  and  _143
REMARK   62  A    between atoms: _143  and  _144
REMARK   63  A    between atoms: _146  and  _148
REMARK   64  A    between atoms: _148  and  _149
REMARK   65  A    between atoms: _151  and  _153
REMARK   66  A    between atoms: _153  and  _154
REMARK   67  A    between atoms: _153  and  _156
REMARK   68  A    between atoms: _156  and  _157
REMARK   69  A    between atoms: _161  and  _162
REMARK   70  A    between atoms: _167  and  _169
REMARK   71  A    between atoms: _169  and  _170
REMARK   72  A    between atoms: _169  and  _172
REMARK   73  A    between atoms: _172  and  _173
REMARK   74  A    between atoms: _179  and  _181
REMARK   75  A    between atoms: _181  and  _182
REMARK   76  A    between atoms: _181  and  _184
REMARK   77  A    between atoms: _184  and  _185
REMARK   78  A    between atoms: _190  and  _192
REMARK   79  A    between atoms: _192  and  _193
REMARK   80  A    between atoms: _192  and  _195
REMARK   81  A    between atoms: _195  and  _196
REMARK   82  A    between atoms: _201  and  _202
REMARK   83  A    between atoms: _204  and  _206
REMARK   84  A    between atoms: _206  and  _207
REMARK   85  A    between atoms: _206  and  _209
REMARK   86  A    between atoms: _211  and  _213
REMARK   87  A    between atoms: _213  and  _214
REMARK   88  A    between atoms: _213  and  _216
REMARK   89  A    between atoms: _216  and  _217
REMARK   90  A    between atoms: _217  and  _218
REMARK   91  A    between atoms: _218  and  _219
REMARK   92  A    between atoms: _219  and  _220
REMARK   93  A    between atoms: _224  and  _226
REMARK   94  A    between atoms: _226  and  _227
REMARK   95  A    between atoms: _226  and  _229
REMARK   96  A    between atoms: _229  and  _230
REMARK   97  A    between atoms: _230  and  _231
REMARK   98  A    between atoms: _234  and  _236
REMARK   99  A    between atoms: _236  and  _237
REMARK  100  A    between atoms: _236  and  _239
REMARK  101  A    between atoms: _241  and  _243
REMARK  102  A    between atoms: _243  and  _244
REMARK  103  A    between atoms: _247  and  _248
REMARK  104  A    between atoms: _253  and  _255
REMARK  105  A    between atoms: _255  and  _256
REMARK  106  A    between atoms: _255  and  _258
REMARK  107  A    between atoms: _261  and  _263
REMARK  108  A    between atoms: _263  and  _264
REMARK  109  A    between atoms: _263  and  _266
REMARK  110  A    between atoms: _266  and  _267
REMARK  111  A    between atoms: _270  and  _272
REMARK  112  A    between atoms: _272  and  _273
REMARK  113  A    between atoms: _276  and  _278
REMARK  114  A    between atoms: _278  and  _279
REMARK  115  A    between atoms: _278  and  _281
REMARK  116  A    between atoms: _281  and  _282
REMARK  117  A    between atoms: _288  and  _290
REMARK  118  A    between atoms: _290  and  _291
REMARK  119  A    between atoms: _290  and  _293
REMARK  120  A    between atoms: _293  and  _294
REMARK  121  A    between atoms: _294  and  _295
REMARK  122  A    between atoms: _297  and  _299
REMARK  123  A    between atoms: _299  and  _300
REMARK  124  A    between atoms: _299  and  _302
REMARK  125  A    between atoms: _302  and  _303
REMARK  126  A    between atoms: _303  and  _304
REMARK  127  A    between atoms: _307  and  _309
REMARK  128  A    between atoms: _309  and  _310
REMARK  129  A    between atoms: _309  and  _312
REMARK  130  A    between atoms: _312  and  _313
REMARK  131  A    between atoms: _313  and  _314
REMARK  132  A    between atoms: _314  and  _315
REMARK  133  A    between atoms: _315  and  _316
REMARK  134  A    between atoms: _320  and  _322
REMARK  135  A    between atoms: _322  and  _323
REMARK  136  A    between atoms: _322  and  _325
REMARK  137  A    between atoms: _328  and  _330
REMARK  138  A    between atoms: _330  and  _331
REMARK  139  A    between atoms: _330  and  _333
REMARK  140  A    between atoms: _333  and  _334
REMARK  141  A    between atoms: _337  and  _339
REMARK  142  A    between atoms: _339  and  _340
REMARK  143  A    between atoms: _339  and  _342
REMARK  144  A    between atoms: _342  and  _343
REMARK  145  A    between atoms: _348  and  _349
REMARK  146  A    between atoms: _351  and  _353
REMARK  147  A    between atoms: _353  and  _354
REMARK  148  A    between atoms: _353  and  _356
REMARK  149  A    between atoms: _356  and  _357
REMARK  150  A    between atoms: _360  and  _362
REMARK  151  A    between atoms: _362  and  _363
REMARK  152  A    between atoms: _362  and  _365
REMARK  153  A    between atoms: _365  and  _366
REMARK  154  A    between atoms: _371  and  _373
REMARK  155  A    between atoms: _373  and  _374
REMARK  156  A    between atoms: _373  and  _376
REMARK  157  A    between atoms: _376  and  _377
REMARK  158  A    between atoms: _379  and  _381
REMARK  159  A    between atoms: _381  and  _382
REMARK  160  A    between atoms: _381  and  _384
REMARK  161  A    between atoms: _384  and  _385
REMARK  162  A    between atoms: _385  and  _386
REMARK  163  A    between atoms: _386  and  _387
REMARK  164  A    between atoms: _387  and  _388
REMARK  165  A    between atoms: _392  and  _394
REMARK  166  A    between atoms: _394  and  _395
REMARK  167  A    between atoms: _394  and  _397
REMARK  168  A    between atoms: _397  and  _398
REMARK  169  A    between atoms: _398  and  _399
REMARK  170  A    between atoms: _404  and  _406
REMARK  171  A    between atoms: _406  and  _407
REMARK  172  A    between atoms: _406  and  _409
REMARK  173  A    between atoms: _412  and  _414
REMARK  174  A    between atoms: _414  and  _415
REMARK  175  A    between atoms: _414  and  _417
REMARK  176  A    between atoms: _417  and  _418
REMARK  177  A    between atoms: _424  and  _426
REMARK  178  A    between atoms: _426  and  _427
REMARK  179  A    between atoms: _430  and  _432
REMARK  180  A    between atoms: _432  and  _433
REMARK  181  A    between atoms: _432  and  _435
REMARK  182  A    between atoms: _435  and  _436
REMARK  183  A    between atoms: _439  and  _441
REMARK  184  A    between atoms: _441  and  _442
REMARK  185  A    between atoms: _441  and  _444
REMARK  186  A    between atoms: _444  and  _445
REMARK  187  A    between atoms: _445  and  _446
REMARK  188  A    between atoms: _446  and  _447
REMARK  189  A    between atoms: _456  and  _458
REMARK  190  A    between atoms: _458  and  _459
REMARK  191  A    between atoms: _458  and  _461
REMARK  192  A    between atoms: _461  and  _462
REMARK  193  A    between atoms: _468  and  _470
REMARK  194  A    between atoms: _470  and  _471
REMARK  195  A    between atoms: _470  and  _473
REMARK  196  A    between atoms: _473  and  _474
REMARK  197  A    between atoms: _477  and  _479
REMARK  198  A    between atoms: _479  and  _480
REMARK  199  A    between atoms: _479  and  _482
REMARK  200  A    between atoms: _482  and  _483
REMARK  201  A    between atoms: _488  and  _489
REMARK  202  A    between atoms: _491  and  _493
REMARK  203  A    between atoms: _493  and  _494
REMARK  204  A    between atoms: _497  and  _499
REMARK  205  A    between atoms: _499  and  _500
REMARK  206  A    between atoms: _499  and  _502
REMARK  207  A    between atoms: _502  and  _503
REMARK  208  A    between atoms: _503  and  _504
REMARK  209  A    between atoms: _506  and  _508
REMARK  210  A    between atoms: _508  and  _509
REMARK  211  A    between atoms: _508  and  _511
REMARK  212  A    between atoms: _511  and  _512
REMARK  213  A    between atoms: _517  and  _519
REMARK  214  A    between atoms: _519  and  _520
REMARK  215  A    between atoms: _519  and  _522
REMARK  216  A    between atoms: _522  and  _523
REMARK  217  A    between atoms: _523  and  _524
REMARK  218  A    between atoms: _524  and  _525
REMARK  219  A    between atoms: _534  and  _536
REMARK  220  A    between atoms: _536  and  _537
REMARK  221  A    between atoms: _536  and  _539
REMARK  222  A    between atoms: _539  and  _540
REMARK  223  A    between atoms: _540  and  _541
REMARK  224  A    between atoms: _544  and  _546
REMARK  225  A    between atoms: _546  and  _547
REMARK  226  A    between atoms: _546  and  _549
REMARK  227  A    between atoms: _552  and  _554
REMARK  228  A    between atoms: _554  and  _555
REMARK  229  A    between atoms: _554  and  _557
REMARK  230  A    between atoms: _557  and  _558
REMARK                            x       y       z     vdW  Elec       q    Type
REMARK                         _______ _______ _______ _____ _____    ______ ____
ROOT
ATOM      1  CA  ALA A   1      18.521  14.361 -12.064  0.00  0.00    +0.133 C 
ATOM      2  CB  ALA A   1      16.995  14.467 -11.944  0.00  0.00    +0.027 C 
ENDROOT
BRANCH   1   3
ATOM      3  N   ALA A   1      18.933  14.203 -13.436  0.00  0.00    -0.239 NA
ATOM      4  H   ALA A   1      18.992  13.251 -13.850  0.00  0.00    +0.142 HD
ENDBRANCH   1   3
BRANCH   1   5
ATOM      5  C   ALA A   1      19.058  13.283 -11.185  0.00  0.00    +0.224 C 
ATOM      6  O   ALA A   1      19.130  13.509 -10.019  0.00  0.00    -0.287 OA
ENDBRANCH   1   5
TORSDOF 2
REMARK  Name = ../refined-set-2016/3hb4/3hb4_pocket.pdb
REMARK  230 active torsions:
REMARK  status: ('A' for Active; 'I' for Inactive)
REMARK    1  A    between atoms: _1  and  _3
REMARK    2  A    between atoms: _3  and  _4
REMARK    3  A    between atoms: _3  and  _6
REMARK    4  A    between atoms: _6  and  _7
REMARK    5  A    between atoms: _9  and  _11
REMARK    6  A    between atoms: _11  and  _12
REMARK    7  A    between atoms: _11  and  _14
REMARK    8  A    between atoms: _14  and  _15
REMARK    9  A    between atoms: _18  and  _20
REMARK   10  A    between atoms: _20  and  _21
REMARK   11  A    between atoms: _20  and  _23
REMARK   12  A    between atoms: _23  and  _24
REMARK   13  A    between atoms: _29  and  _31
REMARK   14  A    between atoms: _31  and  _32
REMARK   15  A    between atoms: _35  and  _37
REMARK   16  A    between atoms: _37  and  _38
REMARK   17  A    between atoms: _40  and  _42
REMARK   18  A    between atoms: _42  and  _43
REMARK   19  A    between atoms: _42  and  _45
REMARK   20  A    between atoms: _45  and  _46
REMARK   21  A    between atoms: _49  and  _51
REMARK   22  A    between atoms: _51  and  _52
REMARK   23  A    between atoms: _54  and  _56
REMARK   24  A    between atoms: _56  and  _57
REMARK   25  A    between atoms: _56  and  _59
REMARK   26  A    between atoms: _59  and  _60
REMARK   27  A    between atoms: _63  and  _65
REMARK   28  A    between atoms: _65  and  _66
REMARK   29  A    between atoms: _65  and  _68
REMARK   30  A    between atoms: _68  and  _69
REMARK   31  A    between atoms: _72  and  _74
REMARK   32  A    between atoms: _74  and  _75
REMARK   33  A    between atoms: _77  and  _79
REMARK   34  A    between atoms: _79  and  _80
REMARK   35  A    between atoms: _79  and  _82
REMARK   36  A    between atoms: _82  and  _83
REMARK   37  A    between atoms: _88  and  _90
REMARK   38  A    between atoms: _90  and  _91
REMARK   39  A    between atoms: _90  and  _93
REMARK   40  A    between atoms: _93  and  _94
REMARK   41  A    between atoms: _97  and  _99
REMARK   42  A    between atoms: _99  and  _100
REMARK   43  A    between atoms: _102  and  _104
REMARK   44  A    between atoms: _104  and  _105
REMARK   45  A    between atoms: _104  and  _107
REMARK   46  A    between atoms: _107  and  _108
REMARK   47  A    between atoms: _110  and  _112
REMARK   48  A    between atoms: _112  and  _113
REMARK   49  A    between atoms: _112  and  _115
REMARK   50  A    between atoms: _118  and  _120
REMARK   51  A    between atoms: _120  and  _121
REMARK   52  A    between atoms: _123  and  _125
REMARK   53  A    between atoms: _125  and  _126
REMARK   54  A    between atoms: _128  and  _130
REMARK   55  A    between atoms: _130  and  _131
REMARK   56  A    between atoms: _130  and  _133
REMARK   57  A    between atoms: _133  and  _134
REMARK   58  A    between atoms: _137  and  _139
REMARK   59  A    between atoms: _139  and  _140
REMARK   60  A    between atoms: _139  and  _142
REMARK   61  A    between atoms: _142  and  _143
REMARK   62  A    between atoms: _143  and  _144
REMARK   63  A    between atoms: _146  and  _148
REMARK   64  A    between atoms: _148  and  _149
REMARK   65  A    between atoms: _151  and  _153
REMARK   66  A    between atoms: _153  and  _154
REMARK   67  A    between atoms: _153  and  _156
REMARK   68  A    between atoms: _156  and  _157
REMARK   69  A    between atoms: _161  and  _162
REMARK   70  A    between atoms: _167  and  _169
REMARK   71  A    between atoms: _169  and  _170
REMARK   72  A    between atoms: _169  and  _172
REMARK   73  A    between atoms: _172  and  _173
REMARK   74  A    between atoms: _179  and  _181
REMARK   75  A    between atoms: _181  and  _182
REMARK   76  A    between atoms: _181  and  _184
REMARK   77  A    between atoms: _184  and  _185
REMARK   78  A    between atoms: _190  and  _192
REMARK   79  A    between atoms: _192  and  _193
REMARK   80  A    between atoms: _192  and  _195
REMARK   81  A    between atoms: _195  and  _196
REMARK   82  A    between atoms: _201  and  _202
REMARK   83  A    between atoms: _204  and  _206
REMARK   84  A    between atoms: _206  and  _207
REMARK   85  A    between atoms: _206  and  _209
REMARK   86  A    between atoms: _211  and  _213
REMARK   87  A    between atoms: _213  and  _214
REMARK   88  A    between atoms: _213  and  _216
REMARK   89  A    between atoms: _216  and  _217
REMARK   90  A    between atoms: _217  and  _218
REMARK   91  A    between atoms: _218  and  _219
REMARK   92  A    between atoms: _219  and  _220
REMARK   93  A    between atoms: _224  and  _226
REMARK   94  A    between atoms: _226  and  _227
REMARK   95  A    between atoms: _226  and  _229
REMARK   96  A    between atoms: _229  and  _230
REMARK   97  A    between atoms: _230  and  _231
REMARK   98  A    between atoms: _234  and  _236
REMARK   99  A    between atoms: _236  and  _237
REMARK  100  A    between atoms: _236  and  _239
REMARK  101  A    between atoms: _241  and  _243
REMARK  102  A    between atoms: _243  and  _244
REMARK  103  A    between atoms: _247  and  _248
REMARK  104  A    between atoms: _253  and  _255
REMARK  105  A    between atoms: _255  and  _256
REMARK  106  A    between atoms: _255  and  _258
REMARK  107  A    between atoms: _261  and  _263
REMARK  108  A    between atoms: _263  and  _264
REMARK  109  A    between atoms: _263  and  _266
REMARK  110  A    between atoms: _266  and  _267
REMARK  111  A    between atoms: _270  and  _272
REMARK  112  A    between atoms: _272  and  _273
REMARK  113  A    between atoms: _276  and  _278
REMARK  114  A    between atoms: _278  and  _279
REMARK  115  A    between atoms: _278  and  _281
REMARK  116  A    between atoms: _281  and  _282
REMARK  117  A    between atoms: _288  and  _290
REMARK  118  A    between atoms: _290  and  _291
REMARK  119  A    between atoms: _290  and  _293
REMARK  120  A    between atoms: _293  and  _294
REMARK  121  A    between atoms: _294  and  _295
REMARK  122  A    between atoms: _297  and  _299
REMARK  123  A    between atoms: _299  and  _300
REMARK  124  A    between atoms: _299  and  _302
REMARK  125  A    between atoms: _302  and  _303
REMARK  126  A    between atoms: _303  and  _304
REMARK  127  A    between atoms: _307  and  _309
REMARK  128  A    between atoms: _309  and  _310
REMARK  129  A    between atoms: _309  and  _312
REMARK  130  A    between atoms: _312  and  _313
REMARK  131  A    between atoms: _313  and  _314
REMARK  132  A    between atoms: _314  and  _315
REMARK  133  A    between atoms: _315  and  _316
REMARK  134  A    between atoms: _320  and  _322
REMARK  135  A    between atoms: _322  and  _323
REMARK  136  A    between atoms: _322  and  _325
REMARK  137  A    between atoms: _328  and  _330
REMARK  138  A    between atoms: _330  and  _331
REMARK  139  A    between atoms: _330  and  _333
REMARK  140  A    between atoms: _333  and  _334
REMARK  141  A    between atoms: _337  and  _339
REMARK  142  A    between atoms: _339  and  _340
REMARK  143  A    between atoms: _339  and  _342
REMARK  144  A    between atoms: _342  and  _343
REMARK  145  A    between atoms: _348  and  _349
REMARK  146  A    between atoms: _351  and  _353
REMARK  147  A    between atoms: _353  and  _354
REMARK  148  A    between atoms: _353  and  _356
REMARK  149  A    between atoms: _356  and  _357
REMARK  150  A    between atoms: _360  and  _362
REMARK  151  A    between atoms: _362  and  _363
REMARK  152  A    between atoms: _362  and  _365
REMARK  153  A    between atoms: _365  and  _366
REMARK  154  A    between atoms: _371  and  _373
REMARK  155  A    between atoms: _373  and  _374
REMARK  156  A    between atoms: _373  and  _376
REMARK  157  A    between atoms: _376  and  _377
REMARK  158  A    between atoms: _379  and  _381
REMARK  159  A    between atoms: _381  and  _382
REMARK  160  A    between atoms: _381  and  _384
REMARK  161  A    between atoms: _384  and  _385
REMARK  162  A    between atoms: _385  and  _386
REMARK  163  A    between atoms: _386  and  _387
REMARK  164  A    between atoms: _387  and  _388
REMARK  165  A    between atoms: _392  and  _394
REMARK  166  A    between atoms: _394  and  _395
REMARK  167  A    between atoms: _394  and  _397
REMARK  168  A    between atoms: _397  and  _398
REMARK  169  A    between atoms: _398  and  _399
REMARK  170  A    between atoms: _404  and  _406
REMARK  171  A    between atoms: _406  and  _407
REMARK  172  A    between atoms: _406  and  _409
REMARK  173  A    between atoms: _412  and  _414
REMARK  174  A    between atoms: _414  and  _415
REMARK  175  A    between atoms: _414  and  _417
REMARK  176  A    between atoms: _417  and  _418
REMARK  177  A    between atoms: _424  and  _426
REMARK  178  A    between atoms: _426  and  _427
REMARK  179  A    between atoms: _430  and  _432
REMARK  180  A    between atoms: _432  and  _433
REMARK  181  A    between atoms: _432  and  _435
REMARK  182  A    between atoms: _435  and  _436
REMARK  183  A    between atoms: _439  and  _441
REMARK  184  A    between atoms: _441  and  _442
REMARK  185  A    between atoms: _441  and  _444
REMARK  186  A    between atoms: _444  and  _445
REMARK  187  A    between atoms: _445  and  _446
REMARK  188  A    between atoms: _446  and  _447
REMARK  189  A    between atoms: _456  and  _458
REMARK  190  A    between atoms: _458  and  _459
REMARK  191  A    between atoms: _458  and  _461
REMARK  192  A    between atoms: _461  and  _462
REMARK  193  A    between atoms: _468  and  _470
REMARK  194  A    between atoms: _470  and  _471
REMARK  195  A    between atoms: _470  and  _473
REMARK  196  A    between atoms: _473  and  _474
REMARK  197  A    between atoms: _477  and  _479
REMARK  198  A    between atoms: _479  and  _480
REMARK  199  A    between atoms: _479  and  _482
REMARK  200  A    between atoms: _482  and  _483
REMARK  201  A    between atoms: _488  and  _489
REMARK  202  A    between atoms: _491  and  _493
REMARK  203  A    between atoms: _493  and  _494
REMARK  204  A    between atoms: _497  and  _499
REMARK  205  A    between atoms: _499  and  _500
REMARK  206  A    between atoms: _499  and  _502
REMARK  207  A    between atoms: _502  and  _503
REMARK  208  A    between atoms: _503  and  _504
REMARK  209  A    between atoms: _506  and  _508
REMARK  210  A    between atoms: _508  and  _509
REMARK  211  A    between atoms: _508  and  _511
REMARK  212  A    between atoms: _511  and  _512
REMARK  213  A    between atoms: _517  and  _519
REMARK  214  A    between atoms: _519  and  _520
REMARK  215  A    between atoms: _519  and  _522
REMARK  216  A    between atoms: _522  and  _523
REMARK  217  A    between atoms: _523  and  _524
REMARK  218  A    between atoms: _524  and  _525
REMARK  219  A    between atoms: _534  and  _536
REMARK  220  A    between atoms: _536  and  _537
REMARK  221  A    between atoms: _536  and  _539
REMARK  222  A    between atoms: _539  and  _540
REMARK  223  A    between atoms: _540  and  _541
REMARK  224  A    between atoms: _544  and  _546
REMARK  225  A    between atoms: _546  and  _547
REMARK  226  A    between atoms: _546  and  _549
REMARK  227  A    between atoms: _552  and  _554
REMARK  228  A    between atoms: _554  and  _555
REMARK  229  A    between atoms: _554  and  _557
REMARK  230  A    between atoms: _557  and  _558
REMARK                            x       y       z     vdW  Elec       q    Type
REMARK                         _______ _______ _______ _____ _____    ______ ____
ROOT
ATOM      1  CA  THR A   1      16.741  16.467  -3.343  0.00  0.00    +0.160 C 
ENDROOT
BRANCH   1   2
ATOM      2  N   THR A   1      16.728  15.485  -2.264  0.00  0.00    -0.237 NA
ATOM      3  H   THR A   1      15.805  15.219  -1.865  0.00  0.00    +0.142 HD
ENDBRANCH   1   2
BRANCH   1   4
ATOM      4  C   THR A   1      15.528  17.329  -3.119  0.00  0.00    +0.227 C 
ATOM      5  O   THR A   1      14.465  16.841  -2.723  0.00  0.00    -0.287 OA
ENDBRANCH   1   4
BRANCH   1   6
ATOM      6  CB  THR A   1      16.683  15.804  -4.723  0.00  0.00    +0.134 C 
ATOM      7  CG2 THR A   1      15.478  14.854  -4.884  0.00  0.00    +0.034 C 
BRANCH   6   8
ATOM      8  OG1 THR A   1      16.710  16.807  -5.740  0.00  0.00    -0.383 OA
ATOM      9  HG1 THR A   1      16.672  16.374  -6.630  0.00  0.00    +0.210 HD
ENDBRANCH   6   8
ENDBRANCH   1   6
TORSDOF 4
REMARK  Name = ../refined-set-2016/3hb4/3hb4_pocket.pdb
REMARK  230 active torsions:
REMARK  status: ('A' for Active; 'I' for Inactive)
REMARK    1  A    between atoms: _1  and  _3
REMARK    2  A    between atoms: _3  and  _4
REMARK    3  A    between atoms: _3  and  _6
REMARK    4  A    between atoms: _6  and  _7
REMARK    5  A    between atoms: _9  and  _11
REMARK    6  A    between atoms: _11  and  _12
REMARK    7  A    between atoms: _11  and  _14
REMARK    8  A    between atoms: _14  and  _15
REMARK    9  A    between atoms: _18  and  _20
REMARK   10  A    between atoms: _20  and  _21
REMARK   11  A    between atoms: _20  and  _23
REMARK   12  A    between atoms: _23  and  _24
REMARK   13  A    between atoms: _29  and  _31
REMARK   14  A    between atoms: _31  and  _32
REMARK   15  A    between atoms: _35  and  _37
REMARK   16  A    between atoms: _37  and  _38
REMARK   17  A    between atoms: _40  and  _42
REMARK   18  A    between atoms: _42  and  _43
REMARK   19  A    between atoms: _42  and  _45
REMARK   20  A    between atoms: _45  and  _46
REMARK   21  A    between atoms: _49  and  _51
REMARK   22  A    between atoms: _51  and  _52
REMARK   23  A    between atoms: _54  and  _56
REMARK   24  A    between atoms: _56  and  _57
REMARK   25  A    between atoms: _56  and  _59
REMARK   26  A    between atoms: _59  and  _60
REMARK   27  A    between atoms: _63  and  _65
REMARK   28  A    between atoms: _65  and  _66
REMARK   29  A    between atoms: _65  and  _68
REMARK   30  A    between atoms: _68  and  _69
REMARK   31  A    between atoms: _72  and  _74
REMARK   32  A    between atoms: _74  and  _75
REMARK   33  A    between atoms: _77  and  _79
REMARK   34  A    between atoms: _79  and  _80
REMARK   35  A    between atoms: _79  and  _82
REMARK   36  A    between atoms: _82  and  _83
REMARK   37  A    between atoms: _88  and  _90
REMARK   38  A    between atoms: _90  and  _91
REMARK   39  A    between atoms: _90  and  _93
REMARK   40  A    between atoms: _93  and  _94
REMARK   41  A    between atoms: _97  and  _99
REMARK   42  A    between atoms: _99  and  _100
REMARK   43  A    between atoms: _102  and  _104
REMARK   44  A    between atoms: _104  and  _105
REMARK   45  A    between atoms: _104  and  _107
REMARK   46  A    between atoms: _107  and  _108
REMARK   47  A    between atoms: _110  and  _112
REMARK   48  A    between atoms: _112  and  _113
REMARK   49  A    between atoms: _112  and  _115
REMARK   50  A    between atoms: _118  and  _120
REMARK   51  A    between atoms: _120  and  _121
REMARK   52  A    between atoms: _123  and  _125
REMARK   53  A    between atoms: _125  and  _126
REMARK   54  A    between atoms: _128  and  _130
REMARK   55  A    between atoms: _130  and  _131
REMARK   56  A    between atoms: _130  and  _133
REMARK   57  A    between atoms: _133  and  _134
REMARK   58  A    between atoms: _137  and  _139
REMARK   59  A    between atoms: _139  and  _140
REMARK   60  A    between atoms: _139  and  _142
REMARK   61  A    between atoms: _142  and  _143
REMARK   62  A    between atoms: _143  and  _144
REMARK   63  A    between atoms: _146  and  _148
REMARK   64  A    between atoms: _148  and  _149
REMARK   65  A    between atoms: _151  and  _153
REMARK   66  A    between atoms: _153  and  _154
REMARK   67  A    between atoms: _153  and  _156
REMARK   68  A    between atoms: _156  and  _157
REMARK   69  A    between atoms: _161  and  _162
REMARK   70  A    between atoms: _167  and  _169
REMARK   71  A    between atoms: _169  and  _170
REMARK   72  A    between atoms: _169  and  _172
REMARK   73  A    between atoms: _172  and  _173
REMARK   74  A    between atoms: _179  and  _181
REMARK   75  A    between atoms: _181  and  _182
REMARK   76  A    between atoms: _181  and  _184
REMARK   77  A    between atoms: _184  and  _185
REMARK   78  A    between atoms: _190  and  _192
REMARK   79  A    between atoms: _192  and  _193
REMARK   80  A    between atoms: _192  and  _195
REMARK   81  A    between atoms: _195  and  _196
REMARK   82  A    between atoms: _201  and  _202
REMARK   83  A    between atoms: _204  and  _206
REMARK   84  A    between atoms: _206  and  _207
REMARK   85  A    between atoms: _206  and  _209
REMARK   86  A    between atoms: _211  and  _213
REMARK   87  A    between atoms: _213  and  _214
REMARK   88  A    between atoms: _213  and  _216
REMARK   89  A    between atoms: _216  and  _217
REMARK   90  A    between atoms: _217  and  _218
REMARK   91  A    between atoms: _218  and  _219
REMARK   92  A    between atoms: _219  and  _220
REMARK   93  A    between atoms: _224  and  _226
REMARK   94  A    between atoms: _226  and  _227
REMARK   95  A    between atoms: _226  and  _229
REMARK   96  A    between atoms: _229  and  _230
REMARK   97  A    between atoms: _230  and  _231
REMARK   98  A    between atoms: _234  and  _236
REMARK   99  A    between atoms: _236  and  _237
REMARK  100  A    between atoms: _236  and  _239
REMARK  101  A    between atoms: _241  and  _243
REMARK  102  A    between atoms: _243  and  _244
REMARK  103  A    between atoms: _247  and  _248
REMARK  104  A    between atoms: _253  and  _255
REMARK  105  A    between atoms: _255  and  _256
REMARK  106  A    between atoms: _255  and  _258
REMARK  107  A    between atoms: _261  and  _263
REMARK  108  A    between atoms: _263  and  _264
REMARK  109  A    between atoms: _263  and  _266
REMARK  110  A    between atoms: _266  and  _267
REMARK  111  A    between atoms: _270  and  _272
REMARK  112  A    between atoms: _272  and  _273
REMARK  113  A    between atoms: _276  and  _278
REMARK  114  A    between atoms: _278  and  _279
REMARK  115  A    between atoms: _278  and  _281
REMARK  116  A    between atoms: _281  and  _282
REMARK  117  A    between atoms: _288  and  _290
REMARK  118  A    between atoms: _290  and  _291
REMARK  119  A    between atoms: _290  and  _293
REMARK  120  A    between atoms: _293  and  _294
REMARK  121  A    between atoms: _294  and  _295
REMARK  122  A    between atoms: _297  and  _299
REMARK  123  A    between atoms: _299  and  _300
REMARK  124  A    between atoms: _299  and  _302
REMARK  125  A    between atoms: _302  and  _303
REMARK  126  A    between atoms: _303  and  _304
REMARK  127  A    between atoms: _307  and  _309
REMARK  128  A    between atoms: _309  and  _310
REMARK  129  A    between atoms: _309  and  _312
REMARK  130  A    between atoms: _312  and  _313
REMARK  131  A    between atoms: _313  and  _314
REMARK  132  A    between atoms: _314  and  _315
REMARK  133  A    between atoms: _315  and  _316
REMARK  134  A    between atoms: _320  and  _322
REMARK  135  A    between atoms: _322  and  _323
REMARK  136  A    between atoms: _322  and  _325
REMARK  137  A    between atoms: _328  and  _330
REMARK  138  A    between atoms: _330  and  _331
REMARK  139  A    between atoms: _330  and  _333
REMARK  140  A    between atoms: _333  and  _334
REMARK  141  A    between atoms: _337  and  _339
REMARK  142  A    between atoms: _339  and  _340
REMARK  143  A    between atoms: _339  and  _342
REMARK  144  A    between atoms: _342  and  _343
REMARK  145  A    between atoms: _348  and  _349
REMARK  146  A    between atoms: _351  and  _353
REMARK  147  A    between atoms: _353  and  _354
REMARK  148  A    between atoms: _353  and  _356
REMARK  149  A    between atoms: _356  and  _357
REMARK  150  A    between atoms: _360  and  _362
REMARK  151  A    between atoms: _362  and  _363
REMARK  152  A    between atoms: _362  and  _365
REMARK  153  A    between atoms: _365  and  _366
REMARK  154  A    between atoms: _371  and  _373
REMARK  155  A    between atoms: _373  and  _374
REMARK  156  A    between atoms: _373  and  _376
REMARK  157  A    between atoms: _376  and  _377
REMARK  158  A    between atoms: _379  and  _381
REMARK  159  A    between atoms: _381  and  _382
REMARK  160  A    between atoms: _381  and  _384
REMARK  161  A    between atoms: _384  and  _385
REMARK  162  A    between atoms: _385  and  _386
REMARK  163  A    between atoms: _386  and  _387
REMARK  164  A    between atoms: _387  and  _388
REMARK  165  A    between atoms: _392  and  _394
REMARK  166  A    between atoms: _394  and  _395
REMARK  167  A    between atoms: _394  and  _397
REMARK  168  A    between atoms: _397  and  _398
REMARK  169  A    between atoms: _398  and  _399
REMARK  170  A    between atoms: _404  and  _406
REMARK  171  A    between atoms: _406  and  _407
REMARK  172  A    between atoms: _406  and  _409
REMARK  173  A    between atoms: _412  and  _414
REMARK  174  A    between atoms: _414  and  _415
REMARK  175  A    between atoms: _414  and  _417
REMARK  176  A    between atoms: _417  and  _418
REMARK  177  A    between atoms: _424  and  _426
REMARK  178  A    between atoms: _426  and  _427
REMARK  179  A    between atoms: _430  and  _432
REMARK  180  A    between atoms: _432  and  _433
REMARK  181  A    between atoms: _432  and  _435
REMARK  182  A    between atoms: _435  and  _436
REMARK  183  A    between atoms: _439  and  _441
REMARK  184  A    between atoms: _441  and  _442
REMARK  185  A    between atoms: _441  and  _444
REMARK  186  A    between atoms: _444  and  _445
REMARK  187  A    between atoms: _445  and  _446
REMARK  188  A    between atoms: _446  and  _447
REMARK  189  A    between atoms: _456  and  _458
REMARK  190  A    between atoms: _458  and  _459
REMARK  191  A    between atoms: _458  and  _461
REMARK  192  A    between atoms: _461  and  _462
REMARK  193  A    between atoms: _468  and  _470
REMARK  194  A    between atoms: _470  and  _471
REMARK  195  A    between atoms: _470  and  _473
REMARK  196  A    between atoms: _473  and  _474
REMARK  197  A    between atoms: _477  and  _479
REMARK  198  A    between atoms: _479  and  _480
REMARK  199  A    between atoms: _479  and  _482
REMARK  200  A    between atoms: _482  and  _483
REMARK  201  A    between atoms: _488  and  _489
REMARK  202  A    between atoms: _491  and  _493
REMARK  203  A    between atoms: _493  and  _494
REMARK  204  A    between atoms: _497  and  _499
REMARK  205  A    between atoms: _499  and  _500
REMARK  206  A    between atoms: _499  and  _502
REMARK  207  A    between atoms: _502  and  _503
REMARK  208  A    between atoms: _503  and  _504
REMARK  209  A    between atoms: _506  and  _508
REMARK  210  A    between atoms: _508  and  _509
REMARK  211  A    between atoms: _508  and  _511
REMARK  212  A    between atoms: _511  and  _512
REMARK  213  A    between atoms: _517  and  _519
REMARK  214  A    between atoms: _519  and  _520
REMARK  215  A    between atoms: _519  and  _522
REMARK  216  A    between atoms: _522  and  _523
REMARK  217  A    between atoms: _523  and  _524
REMARK  218  A    between atoms: _524  and  _525
REMARK  219  A    between atoms: _534  and  _536
REMARK  220  A    between atoms: _536  and  _537
REMARK  221  A    between atoms: _536  and  _539
REMARK  222  A    between atoms: _539  and  _540
REMARK  223  A    between atoms: _540  and  _541
REMARK  224  A    between atoms: _544  and  _546
REMARK  225  A    between atoms: _546  and  _547
REMARK  226  A    between atoms: _546  and  _549
REMARK  227  A    between atoms: _552  and  _554
REMARK  228  A    between atoms: _554  and  _555
REMARK  229  A    between atoms: _554  and  _557
REMARK  230  A    between atoms: _557  and  _558
REMARK                            x       y       z     vdW  Elec       q    Type
REMARK                         _______ _______ _______ _____ _____    ______ ____
ROOT
ATOM      1  CA  ARG A   1      13.923  19.137  -7.060  0.00  0.00    +0.145 C 
ENDROOT
BRANCH   1   2
ATOM      2  C   ARG A   1      12.458  18.831  -7.393  0.00  0.00    +0.238 C 
ATOM      3  N   PHE A   2      11.803  17.970  -6.612  0.00  0.00    -0.298 N 
ATOM      4  H   PHE A   2      12.245  17.583  -5.754  0.00  0.00    +0.150 HD
ATOM      5  O   ARG A   1      11.924  19.361  -8.384  0.00  0.00    -0.274 OA
BRANCH   3   6
ATOM      6  CA  PHE A   2      10.469  17.592  -6.990  0.00  0.00    +0.141 C 
BRANCH   6   7
ATOM      7  C   PHE A   2       9.451  18.345  -6.155  0.00  0.00    +0.227 C 
ATOM      8  O   PHE A   2       8.229  18.190  -6.346  0.00  0.00    -0.286 OA
ENDBRANCH   6   7
BRANCH   6   9
ATOM      9  CB  PHE A   2      10.301  16.065  -6.939  0.00  0.00    +0.054 C 
BRANCH   9  10
ATOM     10  CG  PHE A   2      11.265  15.333  -7.853  0.00  0.00    -0.020 A 
ATOM     11  CD2 PHE A   2      12.463  14.801  -7.353  0.00  0.00    -0.004 A 
ATOM     12  CE2 PHE A   2      13.391  14.176  -8.214  0.00  0.00    -0.000 A 
ATOM     13  CZ  PHE A   2      13.111  14.070  -9.590  0.00  0.00    -0.000 A 
ATOM     14  CE1 PHE A   2      11.943  14.633 -10.103  0.00  0.00    -0.000 A 
ATOM     15  CD1 PHE A   2      11.028  15.269  -9.236  0.00  0.00    -0.004 A 
ENDBRANCH   9  10
ENDBRANCH   6   9
ENDBRANCH   3   6
ENDBRANCH   1   2
BRANCH   1  16
ATOM     16  N   ARG A   1      14.317  18.964  -5.670  0.00  0.00    -0.238 NA
ATOM     17  H   ARG A   1      15.029  18.238  -5.450  0.00  0.00    +0.142 HD
ENDBRANCH   1  16
BRANCH   1  18
ATOM     18  CB  ARG A   1      14.820  18.263  -7.948  0.00  0.00    +0.030 C 
BRANCH  18  19
ATOM     19  CG  ARG A   1      14.526  18.376  -9.431  0.00  0.00    +0.045 C 
BRANCH  19  20
ATOM     20  CD  ARG A   1      15.110  17.235 -10.215  0.00  0.00    +0.174 C 
BRANCH  20  21
ATOM     21  NE  ARG A   1      16.494  17.538 -10.537  0.00  0.00    -0.265 N 
ATOM     22  HE  ARG A   1      17.235  17.094  -9.958  0.00  0.00    +0.259 HD
ATOM     23  CZ  ARG A   1      16.876  18.346 -11.523  0.00  0.00    +0.342 C 
ATOM     24  NH2 ARG A   1      18.158  18.584 -11.714  0.00  0.00    -0.292 N 
ATOM     25 HH21 ARG A   1      18.867  18.141 -11.095  0.00  0.00    +0.255 HD
ATOM     26 HH22 ARG A   1      18.461  19.215 -12.483  0.00  0.00    +0.255 HD
ATOM     27  NH1 ARG A   1      15.979  18.908 -12.305  0.00  0.00    -0.292 N 
ATOM     28 HH11 ARG A   1      14.967  18.721 -12.154  0.00  0.00    +0.255 HD
ATOM     29 HH12 ARG A   1      16.282  19.539 -13.074  0.00  0.00    +0.255 HD
ENDBRANCH  20  21
ENDBRANCH  19  20
ENDBRANCH  18  19
ENDBRANCH   1  18
TORSDOF 10
REMARK  Name = ../refined-set-2016/3hb4/3hb4_pocket.pdb
REMARK  230 active torsions:
REMARK  status: ('A' for Active; 'I' for Inactive)
REMARK    1  A    between atoms: _1  and  _3
REMARK    2  A    between atoms: _3  and  _4
REMARK    3  A    between atoms: _3  and  _6
REMARK    4  A    between atoms: _6  and  _7
REMARK    5  A    between atoms: _9  and  _11
REMARK    6  A    between atoms: _11  and  _12
REMARK    7  A    between atoms: _11  and  _14
REMARK    8  A    between atoms: _14  and  _15
REMARK    9  A    between atoms: _18  and  _20
REMARK   10  A    between atoms: _20  and  _21
REMARK   11  A    between atoms: _20  and  _23
REMARK   12  A    between atoms: _23  and  _24
REMARK   13  A    between atoms: _29  and  _31
REMARK   14  A    between atoms: _31  and  _32
REMARK   15  A    between atoms: _35  and  _37
REMARK   16  A    between atoms: _37  and  _38
REMARK   17  A    between atoms: _40  and  _42
REMARK   18  A    between atoms: _42  and  _43
REMARK   19  A    between atoms: _42  and  _45
REMARK   20  A    between atoms: _45  and  _46
REMARK   21  A    between atoms: _49  and  _51
REMARK   22  A    between atoms: _51  and  _52
REMARK   23  A    between atoms: _54  and  _56
REMARK   24  A    between atoms: _56  and  _57
REMARK   25  A    between atoms: _56  and  _59
REMARK   26  A    between atoms: _59  and  _60
REMARK   27  A    between atoms: _63  and  _65
REMARK   28  A    between atoms: _65  and  _66
REMARK   29  A    between atoms: _65  and  _68
REMARK   30  A    between atoms: _68  and  _69
REMARK   31  A    between atoms: _72  and  _74
REMARK   32  A    between atoms: _74  and  _75
REMARK   33  A    between atoms: _77  and  _79
REMARK   34  A    between atoms: _79  and  _80
REMARK   35  A    between atoms: _79  and  _82
REMARK   36  A    between atoms: _82  and  _83
REMARK   37  A    between atoms: _88  and  _90
REMARK   38  A    between atoms: _90  and  _91
REMARK   39  A    between atoms: _90  and  _93
REMARK   40  A    between atoms: _93  and  _94
REMARK   41  A    between atoms: _97  and  _99
REMARK   42  A    between atoms: _99  and  _100
REMARK   43  A    between atoms: _102  and  _104
REMARK   44  A    between atoms: _104  and  _105
REMARK   45  A    between atoms: _104  and  _107
REMARK   46  A    between atoms: _107  and  _108
REMARK   47  A    between atoms: _110  and  _112
REMARK   48  A    between atoms: _112  and  _113
REMARK   49  A    between atoms: _112  and  _115
REMARK   50  A    between atoms: _118  and  _120
REMARK   51  A    between atoms: _120  and  _121
REMARK   52  A    between atoms: _123  and  _125
REMARK   53  A    between atoms: _125  and  _126
REMARK   54  A    between atoms: _128  and  _130
REMARK   55  A    between atoms: _130  and  _131
REMARK   56  A    between atoms: _130  and  _133
REMARK   57  A    between atoms: _133  and  _134
REMARK   58  A    between atoms: _137  and  _139
REMARK   59  A    between atoms: _139  and  _140
REMARK   60  A    between atoms: _139  and  _142
REMARK   61  A    between atoms: _142  and  _143
REMARK   62  A    between atoms: _143  and  _144
REMARK   63  A    between atoms: _146  and  _148
REMARK   64  A    between atoms: _148  and  _149
REMARK   65  A    between atoms: _151  and  _153
REMARK   66  A    between atoms: _153  and  _154
REMARK   67  A    between atoms: _153  and  _156
REMARK   68  A    between atoms: _156  and  _157
REMARK   69  A    between atoms: _161  and  _162
REMARK   70  A    between atoms: _167  and  _169
REMARK   71  A    between atoms: _169  and  _170
REMARK   72  A    between atoms: _169  and  _172
REMARK   73  A    between atoms: _172  and  _173
REMARK   74  A    between atoms: _179  and  _181
REMARK   75  A    between atoms: _181  and  _182
REMARK   76  A    between atoms: _181  and  _184
REMARK   77  A    between atoms: _184  and  _185
REMARK   78  A    between atoms: _190  and  _192
REMARK   79  A    between atoms: _192  and  _193
REMARK   80  A    between atoms: _192  and  _195
REMARK   81  A    between atoms: _195  and  _196
REMARK   82  A    between atoms: _201  and  _202
REMARK   83  A    between atoms: _204  and  _206
REMARK   84  A    between atoms: _206  and  _207
REMARK   85  A    between atoms: _206  and  _209
REMARK   86  A    between atoms: _211  and  _213
REMARK   87  A    between atoms: _213  and  _214
REMARK   88  A    between atoms: _213  and  _216
REMARK   89  A    between atoms: _216  and  _217
REMARK   90  A    between atoms: _217  and  _218
REMARK   91  A    between atoms: _218  and  _219
REMARK   92  A    between atoms: _219  and  _220
REMARK   93  A    between atoms: _224  and  _226
REMARK   94  A    between atoms: _226  and  _227
REMARK   95  A    between atoms: _226  and  _229
REMARK   96  A    between atoms: _229  and  _230
REMARK   97  A    between atoms: _230  and  _231
REMARK   98  A    between atoms: _234  and  _236
REMARK   99  A    between atoms: _236  and  _237
REMARK  100  A    between atoms: _236  and  _239
REMARK  101  A    between atoms: _241  and  _243
REMARK  102  A    between atoms: _243  and  _244
REMARK  103  A    between atoms: _247  and  _248
REMARK  104  A    between atoms: _253  and  _255
REMARK  105  A    between atoms: _255  and  _256
REMARK  106  A    between atoms: _255  and  _258
REMARK  107  A    between atoms: _261  and  _263
REMARK  108  A    between atoms: _263  and  _264
REMARK  109  A    between atoms: _263  and  _266
REMARK  110  A    between atoms: _266  and  _267
REMARK  111  A    between atoms: _270  and  _272
REMARK  112  A    between atoms: _272  and  _273
REMARK  113  A    between atoms: _276  and  _278
REMARK  114  A    between atoms: _278  and  _279
REMARK  115  A    between atoms: _278  and  _281
REMARK  116  A    between atoms: _281  and  _282
REMARK  117  A    between atoms: _288  and  _290
REMARK  118  A    between atoms: _290  and  _291
REMARK  119  A    between atoms: _290  and  _293
REMARK  120  A    between atoms: _293  and  _294
REMARK  121  A    between atoms: _294  and  _295
REMARK  122  A    between atoms: _297  and  _299
REMARK  123  A    between atoms: _299  and  _300
REMARK  124  A    between atoms: _299  and  _302
REMARK  125  A    between atoms: _302  and  _303
REMARK  126  A    between atoms: _303  and  _304
REMARK  127  A    between atoms: _307  and  _309
REMARK  128  A    between atoms: _309  and  _310
REMARK  129  A    between atoms: _309  and  _312
REMARK  130  A    between atoms: _312  and  _313
REMARK  131  A    between atoms: _313  and  _314
REMARK  132  A    between atoms: _314  and  _315
REMARK  133  A    between atoms: _315  and  _316
REMARK  134  A    between atoms: _320  and  _322
REMARK  135  A    between atoms: _322  and  _323
REMARK  136  A    between atoms: _322  and  _325
REMARK  137  A    between atoms: _328  and  _330
REMARK  138  A    between atoms: _330  and  _331
REMARK  139  A    between atoms: _330  and  _333
REMARK  140  A    between atoms: _333  and  _334
REMARK  141  A    between atoms: _337  and  _339
REMARK  142  A    between atoms: _339  and  _340
REMARK  143  A    between atoms: _339  and  _342
REMARK  144  A    between atoms: _342  and  _343
REMARK  145  A    between atoms: _348  and  _349
REMARK  146  A    between atoms: _351  and  _353
REMARK  147  A    between atoms: _353  and  _354
REMARK  148  A    between atoms: _353  and  _356
REMARK  149  A    between atoms: _356  and  _357
REMARK  150  A    between atoms: _360  and  _362
REMARK  151  A    between atoms: _362  and  _363
REMARK  152  A    between atoms: _362  and  _365
REMARK  153  A    between atoms: _365  and  _366
REMARK  154  A    between atoms: _371  and  _373
REMARK  155  A    between atoms: _373  and  _374
REMARK  156  A    between atoms: _373  and  _376
REMARK  157  A    between atoms: _376  and  _377
REMARK  158  A    between atoms: _379  and  _381
REMARK  159  A    between atoms: _381  and  _382
REMARK  160  A    between atoms: _381  and  _384
REMARK  161  A    between atoms: _384  and  _385
REMARK  162  A    between atoms: _385  and  _386
REMARK  163  A    between atoms: _386  and  _387
REMARK  164  A    between atoms: _387  and  _388
REMARK  165  A    between atoms: _392  and  _394
REMARK  166  A    between atoms: _394  and  _395
REMARK  167  A    between atoms: _394  and  _397
REMARK  168  A    between atoms: _397  and  _398
REMARK  169  A    between atoms: _398  and  _399
REMARK  170  A    between atoms: _404  and  _406
REMARK  171  A    between atoms: _406  and  _407
REMARK  172  A    between atoms: _406  and  _409
REMARK  173  A    between atoms: _412  and  _414
REMARK  174  A    between atoms: _414  and  _415
REMARK  175  A    between atoms: _414  and  _417
REMARK  176  A    between atoms: _417  and  _418
REMARK  177  A    between atoms: _424  and  _426
REMARK  178  A    between atoms: _426  and  _427
REMARK  179  A    between atoms: _430  and  _432
REMARK  180  A    between atoms: _432  and  _433
REMARK  181  A    between atoms: _432  and  _435
REMARK  182  A    between atoms: _435  and  _436
REMARK  183  A    between atoms: _439  and  _441
REMARK  184  A    between atoms: _441  and  _442
REMARK  185  A    between atoms: _441  and  _444
REMARK  186  A    between atoms: _444  and  _445
REMARK  187  A    between atoms: _445  and  _446
REMARK  188  A    between atoms: _446  and  _447
REMARK  189  A    between atoms: _456  and  _458
REMARK  190  A    between atoms: _458  and  _459
REMARK  191  A    between atoms: _458  and  _461
REMARK  192  A    between atoms: _461  and  _462
REMARK  193  A    between atoms: _468  and  _470
REMARK  194  A    between atoms: _470  and  _471
REMARK  195  A    between atoms: _470  and  _473
REMARK  196  A    between atoms: _473  and  _474
REMARK  197  A    between atoms: _477  and  _479
REMARK  198  A    between atoms: _479  and  _480
REMARK  199  A    between atoms: _479  and  _482
REMARK  200  A    between atoms: _482  and  _483
REMARK  201  A    between atoms: _488  and  _489
REMARK  202  A    between atoms: _491  and  _493
REMARK  203  A    between atoms: _493  and  _494
REMARK  204  A    between atoms: _497  and  _499
REMARK  205  A    between atoms: _499  and  _500
REMARK  206  A    between atoms: _499  and  _502
REMARK  207  A    between atoms: _502  and  _503
REMARK  208  A    between atoms: _503  and  _504
REMARK  209  A    between atoms: _506  and  _508
REMARK  210  A    between atoms: _508  and  _509
REMARK  211  A    between atoms: _508  and  _511
REMARK  212  A    between atoms: _511  and  _512
REMARK  213  A    between atoms: _517  and  _519
REMARK  214  A    between atoms: _519  and  _520
REMARK  215  A    between atoms: _519  and  _522
REMARK  216  A    between atoms: _522  and  _523
REMARK  217  A    between atoms: _523  and  _524
REMARK  218  A    between atoms: _524  and  _525
REMARK  219  A    between atoms: _534  and  _536
REMARK  220  A    between atoms: _536  and  _537
REMARK  221  A    between atoms: _536  and  _539
REMARK  222  A    between atoms: _539  and  _540
REMARK  223  A    between atoms: _540  and  _541
REMARK  224  A    between atoms: _544  and  _546
REMARK  225  A    between atoms: _546  and  _547
REMARK  226  A    between atoms: _546  and  _549
REMARK  227  A    between atoms: _552  and  _554
REMARK  228  A    between atoms: _554  and  _555
REMARK  229  A    between atoms: _554  and  _557
REMARK  230  A    between atoms: _557  and  _558
REMARK                            x       y       z     vdW  Elec       q    Type
REMARK                         _______ _______ _______ _____ _____    ______ ____
ROOT
ATOM      1  CA  LEU A   1       5.624  19.367  -8.433  0.00  0.00    +0.133 C 
ENDROOT
BRANCH   1   2
ATOM      2  N   LEU A   1       6.603  20.359  -7.992  0.00  0.00    -0.239 NA
ATOM      3  H   LEU A   1       7.583  20.254  -8.323  0.00  0.00    +0.142 HD
ENDBRANCH   1   2
BRANCH   1   4
ATOM      4  C   LEU A   1       4.737  18.814  -7.328  0.00  0.00    +0.224 C 
ATOM      5  O   LEU A   1       3.558  18.648  -7.542  0.00  0.00    -0.287 OA
ENDBRANCH   1   4
BRANCH   1   6
ATOM      6  CB  LEU A   1       6.351  18.198  -9.061  0.00  0.00    +0.025 C 
BRANCH   6   7
ATOM      7  CG  LEU A   1       5.641  17.364 -10.097  0.00  0.00    +0.002 C 
ATOM      8  CD2 LEU A   1       6.726  16.662 -10.896  0.00  0.00    +0.000 C 
ATOM      9  CD1 LEU A   1       4.770  18.241 -10.970  0.00  0.00    +0.000 C 
ENDBRANCH   6   7
ENDBRANCH   1   6
TORSDOF 4
REMARK  Name = ../refined-set-2016/3hb4/3hb4_pocket.pdb
REMARK  230 active torsions:
REMARK  status: ('A' for Active; 'I' for Inactive)
REMARK    1  A    between atoms: _1  and  _3
REMARK    2  A    between atoms: _3  and  _4
REMARK    3  A    between atoms: _3  and  _6
REMARK    4  A    between atoms: _6  and  _7
REMARK    5  A    between atoms: _9  and  _11
REMARK    6  A    between atoms: _11  and  _12
REMARK    7  A    between atoms: _11  and  _14
REMARK    8  A    between atoms: _14  and  _15
REMARK    9  A    between atoms: _18  and  _20
REMARK   10  A    between atoms: _20  and  _21
REMARK   11  A    between atoms: _20  and  _23
REMARK   12  A    between atoms: _23  and  _24
REMARK   13  A    between atoms: _29  and  _31
REMARK   14  A    between atoms: _31  and  _32
REMARK   15  A    between atoms: _35  and  _37
REMARK   16  A    between atoms: _37  and  _38
REMARK   17  A    between atoms: _40  and  _42
REMARK   18  A    between atoms: _42  and  _43
REMARK   19  A    between atoms: _42  and  _45
REMARK   20  A    between atoms: _45  and  _46
REMARK   21  A    between atoms: _49  and  _51
REMARK   22  A    between atoms: _51  and  _52
REMARK   23  A    between atoms: _54  and  _56
REMARK   24  A    between atoms: _56  and  _57
REMARK   25  A    between atoms: _56  and  _59
REMARK   26  A    between atoms: _59  and  _60
REMARK   27  A    between atoms: _63  and  _65
REMARK   28  A    between atoms: _65  and  _66
REMARK   29  A    between atoms: _65  and  _68
REMARK   30  A    between atoms: _68  and  _69
REMARK   31  A    between atoms: _72  and  _74
REMARK   32  A    between atoms: _74  and  _75
REMARK   33  A    between atoms: _77  and  _79
REMARK   34  A    between atoms: _79  and  _80
REMARK   35  A    between atoms: _79  and  _82
REMARK   36  A    between atoms: _82  and  _83
REMARK   37  A    between atoms: _88  and  _90
REMARK   38  A    between atoms: _90  and  _91
REMARK   39  A    between atoms: _90  and  _93
REMARK   40  A    between atoms: _93  and  _94
REMARK   41  A    between atoms: _97  and  _99
REMARK   42  A    between atoms: _99  and  _100
REMARK   43  A    between atoms: _102  and  _104
REMARK   44  A    between atoms: _104  and  _105
REMARK   45  A    between atoms: _104  and  _107
REMARK   46  A    between atoms: _107  and  _108
REMARK   47  A    between atoms: _110  and  _112
REMARK   48  A    between atoms: _112  and  _113
REMARK   49  A    between atoms: _112  and  _115
REMARK   50  A    between atoms: _118  and  _120
REMARK   51  A    between atoms: _120  and  _121
REMARK   52  A    between atoms: _123  and  _125
REMARK   53  A    between atoms: _125  and  _126
REMARK   54  A    between atoms: _128  and  _130
REMARK   55  A    between atoms: _130  and  _131
REMARK   56  A    between atoms: _130  and  _133
REMARK   57  A    between atoms: _133  and  _134
REMARK   58  A    between atoms: _137  and  _139
REMARK   59  A    between atoms: _139  and  _140
REMARK   60  A    between atoms: _139  and  _142
REMARK   61  A    between atoms: _142  and  _143
REMARK   62  A    between atoms: _143  and  _144
REMARK   63  A    between atoms: _146  and  _148
REMARK   64  A    between atoms: _148  and  _149
REMARK   65  A    between atoms: _151  and  _153
REMARK   66  A    between atoms: _153  and  _154
REMARK   67  A    between atoms: _153  and  _156
REMARK   68  A    between atoms: _156  and  _157
REMARK   69  A    between atoms: _161  and  _162
REMARK   70  A    between atoms: _167  and  _169
REMARK   71  A    between atoms: _169  and  _170
REMARK   72  A    between atoms: _169  and  _172
REMARK   73  A    between atoms: _172  and  _173
REMARK   74  A    between atoms: _179  and  _181
REMARK   75  A    between atoms: _181  and  _182
REMARK   76  A    between atoms: _181  and  _184
REMARK   77  A    between atoms: _184  and  _185
REMARK   78  A    between atoms: _190  and  _192
REMARK   79  A    between atoms: _192  and  _193
REMARK   80  A    between atoms: _192  and  _195
REMARK   81  A    between atoms: _195  and  _196
REMARK   82  A    between atoms: _201  and  _202
REMARK   83  A    between atoms: _204  and  _206
REMARK   84  A    between atoms: _206  and  _207
REMARK   85  A    between atoms: _206  and  _209
REMARK   86  A    between atoms: _211  and  _213
REMARK   87  A    between atoms: _213  and  _214
REMARK   88  A    between atoms: _213  and  _216
REMARK   89  A    between atoms: _216  and  _217
REMARK   90  A    between atoms: _217  and  _218
REMARK   91  A    between atoms: _218  and  _219
REMARK   92  A    between atoms: _219  and  _220
REMARK   93  A    between atoms: _224  and  _226
REMARK   94  A    between atoms: _226  and  _227
REMARK   95  A    between atoms: _226  and  _229
REMARK   96  A    between atoms: _229  and  _230
REMARK   97  A    between atoms: _230  and  _231
REMARK   98  A    between atoms: _234  and  _236
REMARK   99  A    between atoms: _236  and  _237
REMARK  100  A    between atoms: _236  and  _239
REMARK  101  A    between atoms: _241  and  _243
REMARK  102  A    between atoms: _243  and  _244
REMARK  103  A    between atoms: _247  and  _248
REMARK  104  A    between atoms: _253  and  _255
REMARK  105  A    between atoms: _255  and  _256
REMARK  106  A    between atoms: _255  and  _258
REMARK  107  A    between atoms: _261  and  _263
REMARK  108  A    between atoms: _263  and  _264
REMARK  109  A    between atoms: _263  and  _266
REMARK  110  A    between atoms: _266  and  _267
REMARK  111  A    between atoms: _270  and  _272
REMARK  112  A    between atoms: _272  and  _273
REMARK  113  A    between atoms: _276  and  _278
REMARK  114  A    between atoms: _278  and  _279
REMARK  115  A    between atoms: _278  and  _281
REMARK  116  A    between atoms: _281  and  _282
REMARK  117  A    between atoms: _288  and  _290
REMARK  118  A    between atoms: _290  and  _291
REMARK  119  A    between atoms: _290  and  _293
REMARK  120  A    between atoms: _293  and  _294
REMARK  121  A    between atoms: _294  and  _295
REMARK  122  A    between atoms: _297  and  _299
REMARK  123  A    between atoms: _299  and  _300
REMARK  124  A    between atoms: _299  and  _302
REMARK  125  A    between atoms: _302  and  _303
REMARK  126  A    between atoms: _303  and  _304
REMARK  127  A    between atoms: _307  and  _309
REMARK  128  A    between atoms: _309  and  _310
REMARK  129  A    between atoms: _309  and  _312
REMARK  130  A    between atoms: _312  and  _313
REMARK  131  A    between atoms: _313  and  _314
REMARK  132  A    between atoms: _314  and  _315
REMARK  133  A    between atoms: _315  and  _316
REMARK  134  A    between atoms: _320  and  _322
REMARK  135  A    between atoms: _322  and  _323
REMARK  136  A    between atoms: _322  and  _325
REMARK  137  A    between atoms: _328  and  _330
REMARK  138  A    between atoms: _330  and  _331
REMARK  139  A    between atoms: _330  and  _333
REMARK  140  A    between atoms: _333  and  _334
REMARK  141  A    between atoms: _337  and  _339
REMARK  142  A    between atoms: _339  and  _340
REMARK  143  A    between atoms: _339  and  _342
REMARK  144  A    between atoms: _342  and  _343
REMARK  145  A    between atoms: _348  and  _349
REMARK  146  A    between atoms: _351  and  _353
REMARK  147  A    between atoms: _353  and  _354
REMARK  148  A    between atoms: _353  and  _356
REMARK  149  A    between atoms: _356  and  _357
REMARK  150  A    between atoms: _360  and  _362
REMARK  151  A    between atoms: _362  and  _363
REMARK  152  A    between atoms: _362  and  _365
REMARK  153  A    between atoms: _365  and  _366
REMARK  154  A    between atoms: _371  and  _373
REMARK  155  A    between atoms: _373  and  _374
REMARK  156  A    between atoms: _373  and  _376
REMARK  157  A    between atoms: _376  and  _377
REMARK  158  A    between atoms: _379  and  _381
REMARK  159  A    between atoms: _381  and  _382
REMARK  160  A    between atoms: _381  and  _384
REMARK  161  A    between atoms: _384  and  _385
REMARK  162  A    between atoms: _385  and  _386
REMARK  163  A    between atoms: _386  and  _387
REMARK  164  A    between atoms: _387  and  _388
REMARK  165  A    between atoms: _392  and  _394
REMARK  166  A    between atoms: _394  and  _395
REMARK  167  A    between atoms: _394  and  _397
REMARK  168  A    between atoms: _397  and  _398
REMARK  169  A    between atoms: _398  and  _399
REMARK  170  A    between atoms: _404  and  _406
REMARK  171  A    between atoms: _406  and  _407
REMARK  172  A    between atoms: _406  and  _409
REMARK  173  A    between atoms: _412  and  _414
REMARK  174  A    between atoms: _414  and  _415
REMARK  175  A    between atoms: _414  and  _417
REMARK  176  A    between atoms: _417  and  _418
REMARK  177  A    between atoms: _424  and  _426
REMARK  178  A    between atoms: _426  and  _427
REMARK  179  A    between atoms: _430  and  _432
REMARK  180  A    between atoms: _432  and  _433
REMARK  181  A    between atoms: _432  and  _435
REMARK  182  A    between atoms: _435  and  _436
REMARK  183  A    between atoms: _439  and  _441
REMARK  184  A    between atoms: _441  and  _442
REMARK  185  A    between atoms: _441  and  _444
REMARK  186  A    between atoms: _444  and  _445
REMARK  187  A    between atoms: _445  and  _446
REMARK  188  A    between atoms: _446  and  _447
REMARK  189  A    between atoms: _456  and  _458
REMARK  190  A    between atoms: _458  and  _459
REMARK  191  A    between atoms: _458  and  _461
REMARK  192  A    between atoms: _461  and  _462
REMARK  193  A    between atoms: _468  and  _470
REMARK  194  A    between atoms: _470  and  _471
REMARK  195  A    between atoms: _470  and  _473
REMARK  196  A    between atoms: _473  and  _474
REMARK  197  A    between atoms: _477  and  _479
REMARK  198  A    between atoms: _479  and  _480
REMARK  199  A    between atoms: _479  and  _482
REMARK  200  A    between atoms: _482  and  _483
REMARK  201  A    between atoms: _488  and  _489
REMARK  202  A    between atoms: _491  and  _493
REMARK  203  A    between atoms: _493  and  _494
REMARK  204  A    between atoms: _497  and  _499
REMARK  205  A    between atoms: _499  and  _500
REMARK  206  A    between atoms: _499  and  _502
REMARK  207  A    between atoms: _502  and  _503
REMARK  208  A    between atoms: _503  and  _504
REMARK  209  A    between atoms: _506  and  _508
REMARK  210  A    between atoms: _508  and  _509
REMARK  211  A    between atoms: _508  and  _511
REMARK  212  A    between atoms: _511  and  _512
REMARK  213  A    between atoms: _517  and  _519
REMARK  214  A    between atoms: _519  and  _520
REMARK  215  A    between atoms: _519  and  _522
REMARK  216  A    between atoms: _522  and  _523
REMARK  217  A    between atoms: _523  and  _524
REMARK  218  A    between atoms: _524  and  _525
REMARK  219  A    between atoms: _534  and  _536
REMARK  220  A    between atoms: _536  and  _537
REMARK  221  A    between atoms: _536  and  _539
REMARK  222  A    between atoms: _539  and  _540
REMARK  223  A    between atoms: _540  and  _541
REMARK  224  A    between atoms: _544  and  _546
REMARK  225  A    between atoms: _546  and  _547
REMARK  226  A    between atoms: _546  and  _549
REMARK  227  A    between atoms: _552  and  _554
REMARK  228  A    between atoms: _554  and  _555
REMARK  229  A    between atoms: _554  and  _557
REMARK  230  A    between atoms: _557  and  _558
REMARK                            x       y       z     vdW  Elec       q    Type
REMARK                         _______ _______ _______ _____ _____    ______ ____
ROOT
ATOM      1  CG  TYR A   1      -0.025  15.399  -9.795  0.00  0.00    -0.020 A 
ATOM      2  CD2 TYR A   1       1.318  15.771  -9.605  0.00  0.00    -0.001 A 
ATOM      3  CE2 TYR A   1       2.357  14.858  -9.747  0.00  0.00    +0.036 A 
ATOM      4  CZ  TYR A   1       2.064  13.518 -10.108  0.00  0.00    +0.134 A 
ATOM      5  CE1 TYR A   1       0.746  13.126 -10.327  0.00  0.00    +0.036 A 
ATOM      6  CD1 TYR A   1      -0.314  14.080 -10.187  0.00  0.00    -0.001 A 
ENDROOT
BRANCH   4   7
ATOM      7  OH  TYR A   1       3.105  12.597 -10.259  0.00  0.00    -0.506 OA
ATOM      8  HH  TYR A   1       2.972  11.845  -9.630  0.00  0.00    +0.292 HD
ENDBRANCH   4   7
BRANCH   1   9
ATOM      9  CB  TYR A   1      -1.109  16.403  -9.659  0.00  0.00    +0.051 C 
BRANCH   9  10
ATOM     10  CA  TYR A   1      -1.247  17.218 -10.968  0.00  0.00    +0.137 C 
BRANCH  10  11
ATOM     11  N   TYR A   1      -2.374  18.142 -10.969  0.00  0.00    -0.239 NA
ATOM     12  H   TYR A   1      -3.061  18.133 -10.189  0.00  0.00    +0.142 HD
ENDBRANCH  10  11
BRANCH  10  13
ATOM     13  C   TYR A   1      -1.299  16.312 -12.161  0.00  0.00    +0.224 C 
ATOM     14  O   TYR A   1      -0.277  16.079 -12.819  0.00  0.00    -0.287 OA
ENDBRANCH  10  13
ENDBRANCH   9  10
ENDBRANCH   1   9
TORSDOF 5
REMARK  Name = ../refined-set-2016/3hb4/3hb4_pocket.pdb
REMARK  230 active torsions:
REMARK  status: ('A' for Active; 'I' for Inactive)
REMARK    1  A    between atoms: _1  and  _3
REMARK    2  A    between atoms: _3  and  _4
REMARK    3  A    between atoms: _3  and  _6
REMARK    4  A    between atoms: _6  and  _7
REMARK    5  A    between atoms: _9  and  _11
REMARK    6  A    between atoms: _11  and  _12
REMARK    7  A    between atoms: _11  and  _14
REMARK    8  A    between atoms: _14  and  _15
REMARK    9  A    between atoms: _18  and  _20
REMARK   10  A    between atoms: _20  and  _21
REMARK   11  A    between atoms: _20  and  _23
REMARK   12  A    between atoms: _23  and  _24
REMARK   13  A    between atoms: _29  and  _31
REMARK   14  A    between atoms: _31  and  _32
REMARK   15  A    between atoms: _35  and  _37
REMARK   16  A    between atoms: _37  and  _38
REMARK   17  A    between atoms: _40  and  _42
REMARK   18  A    between atoms: _42  and  _43
REMARK   19  A    between atoms: _42  and  _45
REMARK   20  A    between atoms: _45  and  _46
REMARK   21  A    between atoms: _49  and  _51
REMARK   22  A    between atoms: _51  and  _52
REMARK   23  A    between atoms: _54  and  _56
REMARK   24  A    between atoms: _56  and  _57
REMARK   25  A    between atoms: _56  and  _59
REMARK   26  A    between atoms: _59  and  _60
REMARK   27  A    between atoms: _63  and  _65
REMARK   28  A    between atoms: _65  and  _66
REMARK   29  A    between atoms: _65  and  _68
REMARK   30  A    between atoms: _68  and  _69
REMARK   31  A    between atoms: _72  and  _74
REMARK   32  A    between atoms: _74  and  _75
REMARK   33  A    between atoms: _77  and  _79
REMARK   34  A    between atoms: _79  and  _80
REMARK   35  A    between atoms: _79  and  _82
REMARK   36  A    between atoms: _82  and  _83
REMARK   37  A    between atoms: _88  and  _90
REMARK   38  A    between atoms: _90  and  _91
REMARK   39  A    between atoms: _90  and  _93
REMARK   40  A    between atoms: _93  and  _94
REMARK   41  A    between atoms: _97  and  _99
REMARK   42  A    between atoms: _99  and  _100
REMARK   43  A    between atoms: _102  and  _104
REMARK   44  A    between atoms: _104  and  _105
REMARK   45  A    between atoms: _104  and  _107
REMARK   46  A    between atoms: _107  and  _108
REMARK   47  A    between atoms: _110  and  _112
REMARK   48  A    between atoms: _112  and  _113
REMARK   49  A    between atoms: _112  and  _115
REMARK   50  A    between atoms: _118  and  _120
REMARK   51  A    between atoms: _120  and  _121
REMARK   52  A    between atoms: _123  and  _125
REMARK   53  A    between atoms: _125  and  _126
REMARK   54  A    between atoms: _128  and  _130
REMARK   55  A    between atoms: _130  and  _131
REMARK   56  A    between atoms: _130  and  _133
REMARK   57  A    between atoms: _133  and  _134
REMARK   58  A    between atoms: _137  and  _139
REMARK   59  A    between atoms: _139  and  _140
REMARK   60  A    between atoms: _139  and  _142
REMARK   61  A    between atoms: _142  and  _143
REMARK   62  A    between atoms: _143  and  _144
REMARK   63  A    between atoms: _146  and  _148
REMARK   64  A    between atoms: _148  and  _149
REMARK   65  A    between atoms: _151  and  _153
REMARK   66  A    between atoms: _153  and  _154
REMARK   67  A    between atoms: _153  and  _156
REMARK   68  A    between atoms: _156  and  _157
REMARK   69  A    between atoms: _161  and  _162
REMARK   70  A    between atoms: _167  and  _169
REMARK   71  A    between atoms: _169  and  _170
REMARK   72  A    between atoms: _169  and  _172
REMARK   73  A    between atoms: _172  and  _173
REMARK   74  A    between atoms: _179  and  _181
REMARK   75  A    between atoms: _181  and  _182
REMARK   76  A    between atoms: _181  and  _184
REMARK   77  A    between atoms: _184  and  _185
REMARK   78  A    between atoms: _190  and  _192
REMARK   79  A    between atoms: _192  and  _193
REMARK   80  A    between atoms: _192  and  _195
REMARK   81  A    between atoms: _195  and  _196
REMARK   82  A    between atoms: _201  and  _202
REMARK   83  A    between atoms: _204  and  _206
REMARK   84  A    between atoms: _206  and  _207
REMARK   85  A    between atoms: _206  and  _209
REMARK   86  A    between atoms: _211  and  _213
REMARK   87  A    between atoms: _213  and  _214
REMARK   88  A    between atoms: _213  and  _216
REMARK   89  A    between atoms: _216  and  _217
REMARK   90  A    between atoms: _217  and  _218
REMARK   91  A    between atoms: _218  and  _219
REMARK   92  A    between atoms: _219  and  _220
REMARK   93  A    between atoms: _224  and  _226
REMARK   94  A    between atoms: _226  and  _227
REMARK   95  A    between atoms: _226  and  _229
REMARK   96  A    between atoms: _229  and  _230
REMARK   97  A    between atoms: _230  and  _231
REMARK   98  A    between atoms: _234  and  _236
REMARK   99  A    between atoms: _236  and  _237
REMARK  100  A    between atoms: _236  and  _239
REMARK  101  A    between atoms: _241  and  _243
REMARK  102  A    between atoms: _243  and  _244
REMARK  103  A    between atoms: _247  and  _248
REMARK  104  A    between atoms: _253  and  _255
REMARK  105  A    between atoms: _255  and  _256
REMARK  106  A    between atoms: _255  and  _258
REMARK  107  A    between atoms: _261  and  _263
REMARK  108  A    between atoms: _263  and  _264
REMARK  109  A    between atoms: _263  and  _266
REMARK  110  A    between atoms: _266  and  _267
REMARK  111  A    between atoms: _270  and  _272
REMARK  112  A    between atoms: _272  and  _273
REMARK  113  A    between atoms: _276  and  _278
REMARK  114  A    between atoms: _278  and  _279
REMARK  115  A    between atoms: _278  and  _281
REMARK  116  A    between atoms: _281  and  _282
REMARK  117  A    between atoms: _288  and  _290
REMARK  118  A    between atoms: _290  and  _291
REMARK  119  A    between atoms: _290  and  _293
REMARK  120  A    between atoms: _293  and  _294
REMARK  121  A    between atoms: _294  and  _295
REMARK  122  A    between atoms: _297  and  _299
REMARK  123  A    between atoms: _299  and  _300
REMARK  124  A    between atoms: _299  and  _302
REMARK  125  A    between atoms: _302  and  _303
REMARK  126  A    between atoms: _303  and  _304
REMARK  127  A    between atoms: _307  and  _309
REMARK  128  A    between atoms: _309  and  _310
REMARK  129  A    between atoms: _309  and  _312
REMARK  130  A    between atoms: _312  and  _313
REMARK  131  A    between atoms: _313  and  _314
REMARK  132  A    between atoms: _314  and  _315
REMARK  133  A    between atoms: _315  and  _316
REMARK  134  A    between atoms: _320  and  _322
REMARK  135  A    between atoms: _322  and  _323
REMARK  136  A    between atoms: _322  and  _325
REMARK  137  A    between atoms: _328  and  _330
REMARK  138  A    between atoms: _330  and  _331
REMARK  139  A    between atoms: _330  and  _333
REMARK  140  A    between atoms: _333  and  _334
REMARK  141  A    between atoms: _337  and  _339
REMARK  142  A    between atoms: _339  and  _340
REMARK  143  A    between atoms: _339  and  _342
REMARK  144  A    between atoms: _342  and  _343
REMARK  145  A    between atoms: _348  and  _349
REMARK  146  A    between atoms: _351  and  _353
REMARK  147  A    between atoms: _353  and  _354
REMARK  148  A    between atoms: _353  and  _356
REMARK  149  A    between atoms: _356  and  _357
REMARK  150  A    between atoms: _360  and  _362
REMARK  151  A    between atoms: _362  and  _363
REMARK  152  A    between atoms: _362  and  _365
REMARK  153  A    between atoms: _365  and  _366
REMARK  154  A    between atoms: _371  and  _373
REMARK  155  A    between atoms: _373  and  _374
REMARK  156  A    between atoms: _373  and  _376
REMARK  157  A    between atoms: _376  and  _377
REMARK  158  A    between atoms: _379  and  _381
REMARK  159  A    between atoms: _381  and  _382
REMARK  160  A    between atoms: _381  and  _384
REMARK  161  A    between atoms: _384  and  _385
REMARK  162  A    between atoms: _385  and  _386
REMARK  163  A    between atoms: _386  and  _387
REMARK  164  A    between atoms: _387  and  _388
REMARK  165  A    between atoms: _392  and  _394
REMARK  166  A    between atoms: _394  and  _395
REMARK  167  A    between atoms: _394  and  _397
REMARK  168  A    between atoms: _397  and  _398
REMARK  169  A    between atoms: _398  and  _399
REMARK  170  A    between atoms: _404  and  _406
REMARK  171  A    between atoms: _406  and  _407
REMARK  172  A    between atoms: _406  and  _409
REMARK  173  A    between atoms: _412  and  _414
REMARK  174  A    between atoms: _414  and  _415
REMARK  175  A    between atoms: _414  and  _417
REMARK  176  A    between atoms: _417  and  _418
REMARK  177  A    between atoms: _424  and  _426
REMARK  178  A    between atoms: _426  and  _427
REMARK  179  A    between atoms: _430  and  _432
REMARK  180  A    between atoms: _432  and  _433
REMARK  181  A    between atoms: _432  and  _435
REMARK  182  A    between atoms: _435  and  _436
REMARK  183  A    between atoms: _439  and  _441
REMARK  184  A    between atoms: _441  and  _442
REMARK  185  A    between atoms: _441  and  _444
REMARK  186  A    between atoms: _444  and  _445
REMARK  187  A    between atoms: _445  and  _446
REMARK  188  A    between atoms: _446  and  _447
REMARK  189  A    between atoms: _456  and  _458
REMARK  190  A    between atoms: _458  and  _459
REMARK  191  A    between atoms: _458  and  _461
REMARK  192  A    between atoms: _461  and  _462
REMARK  193  A    between atoms: _468  and  _470
REMARK  194  A    between atoms: _470  and  _471
REMARK  195  A    between atoms: _470  and  _473
REMARK  196  A    between atoms: _473  and  _474
REMARK  197  A    between atoms: _477  and  _479
REMARK  198  A    between atoms: _479  and  _480
REMARK  199  A    between atoms: _479  and  _482
REMARK  200  A    between atoms: _482  and  _483
REMARK  201  A    between atoms: _488  and  _489
REMARK  202  A    between atoms: _491  and  _493
REMARK  203  A    between atoms: _493  and  _494
REMARK  204  A    between atoms: _497  and  _499
REMARK  205  A    between atoms: _499  and  _500
REMARK  206  A    between atoms: _499  and  _502
REMARK  207  A    between atoms: _502  and  _503
REMARK  208  A    between atoms: _503  and  _504
REMARK  209  A    between atoms: _506  and  _508
REMARK  210  A    between atoms: _508  and  _509
REMARK  211  A    between atoms: _508  and  _511
REMARK  212  A    between atoms: _511  and  _512
REMARK  213  A    between atoms: _517  and  _519
REMARK  214  A    between atoms: _519  and  _520
REMARK  215  A    between atoms: _519  and  _522
REMARK  216  A    between atoms: _522  and  _523
REMARK  217  A    between atoms: _523  and  _524
REMARK  218  A    between atoms: _524  and  _525
REMARK  219  A    between atoms: _534  and  _536
REMARK  220  A    between atoms: _536  and  _537
REMARK  221  A    between atoms: _536  and  _539
REMARK  222  A    between atoms: _539  and  _540
REMARK  223  A    between atoms: _540  and  _541
REMARK  224  A    between atoms: _544  and  _546
REMARK  225  A    between atoms: _546  and  _547
REMARK  226  A    between atoms: _546  and  _549
REMARK  227  A    between atoms: _552  and  _554
REMARK  228  A    between atoms: _554  and  _555
REMARK  229  A    between atoms: _554  and  _557
REMARK  230  A    between atoms: _557  and  _558
REMARK                            x       y       z     vdW  Elec       q    Type
REMARK                         _______ _______ _______ _____ _____    ______ ____
ROOT
ATOM      1  CA  ARG A   4       2.045  16.638 -20.406  0.00  0.00    +0.149 C 
ENDROOT
BRANCH   1   3
ATOM      2  C   HIS A   3       1.269  14.536 -19.482  0.00  0.00    +0.241 C 
ATOM      3  N   ARG A   4       1.307  15.857 -19.444  0.00  0.00    -0.297 N 
ATOM      4  H   ARG A   4       0.785  16.351 -18.692  0.00  0.00    +0.150 HD
ATOM      5  O   HIS A   3       1.940  13.865 -20.288  0.00  0.00    -0.273 OA
BRANCH   2   6
ATOM      6  CA  HIS A   3       0.416  13.853 -18.349  0.00  0.00    +0.155 C 
BRANCH   6   8
ATOM      7  C   MET A   2       1.952  14.448 -16.594  0.00  0.00    +0.241 C 
ATOM      8  N   HIS A   3       0.700  14.436 -17.035  0.00  0.00    -0.297 N 
ATOM      9  H   HIS A   3      -0.067  14.834 -16.457  0.00  0.00    +0.150 HD
ATOM     10  O   MET A   2       2.896  13.934 -17.235  0.00  0.00    -0.273 OA
BRANCH   7  11
ATOM     11  CA  MET A   2       2.219  15.103 -15.233  0.00  0.00    +0.149 C 
BRANCH  11  13
ATOM     12  C   ALA A   1       1.707  17.385 -15.763  0.00  0.00    +0.238 C 
ATOM     13  N   MET A   2       1.432  16.309 -15.016  0.00  0.00    -0.297 N 
ATOM     14  H   MET A   2       0.677  16.333 -14.301  0.00  0.00    +0.150 HD
ATOM     15  O   ALA A   1       2.630  17.408 -16.636  0.00  0.00    -0.274 OA
BRANCH  12  16
ATOM     16  CA  ALA A   1       0.857  18.604 -15.499  0.00  0.00    +0.145 C 
ATOM     17  CB  ALA A   1       1.293  19.237 -14.161  0.00  0.00    +0.028 C 
BRANCH  16  18
ATOM     18  N   ALA A   1      -0.583  18.277 -15.462  0.00  0.00    -0.238 NA
ATOM     19  H   ALA A   1      -1.121  18.558 -14.618  0.00  0.00    +0.142 HD
ENDBRANCH  16  18
ENDBRANCH  12  16
ENDBRANCH  11  13
BRANCH  11  20
ATOM     20  CB  MET A   2       2.075  14.114 -14.089  0.00  0.00    +0.041 C 
BRANCH  20  21
ATOM     21  CG  MET A   2       3.008  12.881 -14.167  0.00  0.00    +0.060 C 
BRANCH  21  22
ATOM     22  SD  MET A   2       4.830  13.150 -14.076  0.00  0.00    -0.139 S 
ATOM     23  CE  MET A   2       4.902  14.386 -12.863  0.00  0.00    +0.069 C 
ENDBRANCH  21  22
ENDBRANCH  20  21
ENDBRANCH  11  20
ENDBRANCH   7  11
ENDBRANCH   6   8
BRANCH   6  24
ATOM     24  CB  HIS A   3      -1.061  13.856 -18.717  0.00  0.00    +0.076 C 
BRANCH  24  25
ATOM     25  CG  HIS A   3      -1.332  13.101 -19.983  0.00  0.00    +0.082 A 
ATOM     26  CD2 HIS A   3      -1.468  11.774 -20.215  0.00  0.00    +0.115 A 
ATOM     27  NE2 HIS A   3      -1.625  11.610 -21.572  0.00  0.00    -0.221 NA
ATOM     28  CE1 HIS A   3      -1.582  12.797 -22.154  0.00  0.00    +0.199 A 
ATOM     29  ND1 HIS A   3      -1.383  13.710 -21.219  0.00  0.00    -0.227 NA
ENDBRANCH  24  25
ENDBRANCH   6  24
ENDBRANCH   2   6
ENDBRANCH   1   3
BRANCH   1  30
ATOM     30  C   ARG A   4       3.559  16.527 -20.162  0.00  0.00    +0.241 C 
ATOM     31  N   GLU A   5       4.016  16.625 -18.911  0.00  0.00    -0.297 N 
ATOM     32  H   GLU A   5       3.375  16.942 -18.155  0.00  0.00    +0.150 HD
ATOM     33  O   ARG A   4       4.298  16.293 -21.091  0.00  0.00    -0.273 OA
BRANCH  31  34
ATOM     34  CA  GLU A   5       5.410  16.292 -18.585  0.00  0.00    +0.149 C 
BRANCH  34  35
ATOM     35  C   GLU A   5       5.888  14.978 -19.202  0.00  0.00    +0.241 C 
ATOM     36  N   VAL A   6       5.091  13.924 -19.103  0.00  0.00    -0.297 N 
ATOM     37  H   VAL A   6       4.130  14.042 -18.722  0.00  0.00    +0.150 HD
ATOM     38  O   GLU A   5       6.989  14.917 -19.741  0.00  0.00    -0.273 OA
BRANCH  36  39
ATOM     39  CA  VAL A   6       5.546  12.589 -19.524  0.00  0.00    +0.149 C 
BRANCH  39  40
ATOM     40  C   VAL A   6       5.359  12.344 -21.034  0.00  0.00    +0.241 C 
ATOM     41  N   PHE A   7       4.250  12.833 -21.557  0.00  0.00    -0.298 N 
ATOM     42  H   PHE A   7       3.646  13.459 -20.988  0.00  0.00    +0.150 HD
ATOM     43  O   VAL A   6       6.181  11.702 -21.704  0.00  0.00    -0.273 OA
BRANCH  41  44
ATOM     44  CA  PHE A   7       3.865  12.507 -22.915  0.00  0.00    +0.141 C 
BRANCH  44  45
ATOM     45  C   PHE A   7       3.962  13.733 -23.849  0.00  0.00    +0.227 C 
ATOM     46  O   PHE A   7       4.028  14.936 -23.473  0.00  0.00    -0.286 OA
ENDBRANCH  44  45
BRANCH  44  47
ATOM     47  CB  PHE A   7       2.463  11.844 -22.959  0.00  0.00    +0.054 C 
BRANCH  47  48
ATOM     48  CG  PHE A   7       2.341  10.602 -22.098  0.00  0.00    -0.020 A 
ATOM     49  CD2 PHE A   7       1.633  10.640 -20.890  0.00  0.00    -0.004 A 
ATOM     50  CE2 PHE A   7       1.525   9.512 -20.085  0.00  0.00    -0.000 A 
ATOM     51  CZ  PHE A   7       2.152   8.306 -20.502  0.00  0.00    -0.000 A 
ATOM     52  CE1 PHE A   7       2.856   8.263 -21.686  0.00  0.00    -0.000 A 
ATOM     53  CD1 PHE A   7       2.941   9.417 -22.479  0.00  0.00    -0.004 A 
ENDBRANCH  47  48
ENDBRANCH  44  47
ENDBRANCH  41  44
ENDBRANCH  39  40
BRANCH  39  54
ATOM     54  CB  VAL A   6       4.857  11.424 -18.687  0.00  0.00    +0.027 C 
ATOM     55  CG2 VAL A   6       5.219  11.498 -17.212  0.00  0.00    +0.002 C 
ATOM     56  CG1 VAL A   6       5.236  10.041 -19.230  0.00  0.00    +0.002 C 
ENDBRANCH  39  54
ENDBRANCH  36  39
ENDBRANCH  34  35
BRANCH  34  57
ATOM     57  CB  GLU A   5       5.645  16.227 -17.078  0.00  0.00    +0.041 C 
BRANCH  57  58
ATOM     58  CG  GLU A   5       5.882  17.549 -16.394  0.00  0.00    +0.116 C 
BRANCH  58  59
ATOM     59  CD  GLU A   5       7.295  17.686 -15.895  0.00  0.00    +0.365 C 
ATOM     60  OE2 GLU A   5       7.511  17.505 -14.662  0.00  0.00    -0.246 OA
ATOM     61  OE1 GLU A   5       8.181  17.965 -16.749  0.00  0.00    -0.246 OA
ENDBRANCH  58  59
ENDBRANCH  57  58
ENDBRANCH  34  57
ENDBRANCH  31  34
ENDBRANCH   1  30
BRANCH   1  62
ATOM     62  CB  ARG A   4       1.436  18.063 -20.483  0.00  0.00    +0.033 C 
BRANCH  62  63
ATOM     63  CG  ARG A   4       2.391  19.195 -20.520  0.00  0.00    +0.045 C 
BRANCH  63  64
ATOM     64  CD  ARG A   4       2.637  19.678 -19.114  0.00  0.00    +0.174 C 
BRANCH  64  65
ATOM     65  NE  ARG A   4       3.928  20.360 -19.029  0.00  0.00    -0.265 N 
ATOM     66  CZ  ARG A   4       4.611  20.553 -17.902  0.00  0.00    +0.342 C 
ATOM     67  NH2 ARG A   4       4.129  20.103 -16.735  0.00  0.00    -0.292 N 
ATOM     68 HH21 ARG A   4       4.665  20.256 -15.857  0.00  0.00    +0.255 HD
ATOM     69 HH22 ARG A   4       3.219  19.601 -16.707  0.00  0.00    +0.255 HD
ATOM     70  NH1 ARG A   4       5.778  21.202 -17.957  0.00  0.00    -0.292 N 
ATOM     71 HH11 ARG A   4       6.325  21.362 -17.087  0.00  0.00    +0.255 HD
ATOM     72 HH12 ARG A   4       6.139  21.547 -18.869  0.00  0.00    +0.255 HD
ATOM     73  HE  ARG A   4       4.343  20.720 -19.912  0.00  0.00    +0.259 HD
ENDBRANCH  64  65
ENDBRANCH  63  64
ENDBRANCH  62  63
ENDBRANCH   1  62
TORSDOF 29
REMARK  Name = ../refined-set-2016/3hb4/3hb4_pocket.pdb
REMARK  230 active torsions:
REMARK  status: ('A' for Active; 'I' for Inactive)
REMARK    1  A    between atoms: _1  and  _3
REMARK    2  A    between atoms: _3  and  _4
REMARK    3  A    between atoms: _3  and  _6
REMARK    4  A    between atoms: _6  and  _7
REMARK    5  A    between atoms: _9  and  _11
REMARK    6  A    between atoms: _11  and  _12
REMARK    7  A    between atoms: _11  and  _14
REMARK    8  A    between atoms: _14  and  _15
REMARK    9  A    between atoms: _18  and  _20
REMARK   10  A    between atoms: _20  and  _21
REMARK   11  A    between atoms: _20  and  _23
REMARK   12  A    between atoms: _23  and  _24
REMARK   13  A    between atoms: _29  and  _31
REMARK   14  A    between atoms: _31  and  _32
REMARK   15  A    between atoms: _35  and  _37
REMARK   16  A    between atoms: _37  and  _38
REMARK   17  A    between atoms: _40  and  _42
REMARK   18  A    between atoms: _42  and  _43
REMARK   19  A    between atoms: _42  and  _45
REMARK   20  A    between atoms: _45  and  _46
REMARK   21  A    between atoms: _49  and  _51
REMARK   22  A    between atoms: _51  and  _52
REMARK   23  A    between atoms: _54  and  _56
REMARK   24  A    between atoms: _56  and  _57
REMARK   25  A    between atoms: _56  and  _59
REMARK   26  A    between atoms: _59  and  _60
REMARK   27  A    between atoms: _63  and  _65
REMARK   28  A    between atoms: _65  and  _66
REMARK   29  A    between atoms: _65  and  _68
REMARK   30  A    between atoms: _68  and  _69
REMARK   31  A    between atoms: _72  and  _74
REMARK   32  A    between atoms: _74  and  _75
REMARK   33  A    between atoms: _77  and  _79
REMARK   34  A    between atoms: _79  and  _80
REMARK   35  A    between atoms: _79  and  _82
REMARK   36  A    between atoms: _82  and  _83
REMARK   37  A    between atoms: _88  and  _90
REMARK   38  A    between atoms: _90  and  _91
REMARK   39  A    between atoms: _90  and  _93
REMARK   40  A    between atoms: _93  and  _94
REMARK   41  A    between atoms: _97  and  _99
REMARK   42  A    between atoms: _99  and  _100
REMARK   43  A    between atoms: _102  and  _104
REMARK   44  A    between atoms: _104  and  _105
REMARK   45  A    between atoms: _104  and  _107
REMARK   46  A    between atoms: _107  and  _108
REMARK   47  A    between atoms: _110  and  _112
REMARK   48  A    between atoms: _112  and  _113
REMARK   49  A    between atoms: _112  and  _115
REMARK   50  A    between atoms: _118  and  _120
REMARK   51  A    between atoms: _120  and  _121
REMARK   52  A    between atoms: _123  and  _125
REMARK   53  A    between atoms: _125  and  _126
REMARK   54  A    between atoms: _128  and  _130
REMARK   55  A    between atoms: _130  and  _131
REMARK   56  A    between atoms: _130  and  _133
REMARK   57  A    between atoms: _133  and  _134
REMARK   58  A    between atoms: _137  and  _139
REMARK   59  A    between atoms: _139  and  _140
REMARK   60  A    between atoms: _139  and  _142
REMARK   61  A    between atoms: _142  and  _143
REMARK   62  A    between atoms: _143  and  _144
REMARK   63  A    between atoms: _146  and  _148
REMARK   64  A    between atoms: _148  and  _149
REMARK   65  A    between atoms: _151  and  _153
REMARK   66  A    between atoms: _153  and  _154
REMARK   67  A    between atoms: _153  and  _156
REMARK   68  A    between atoms: _156  and  _157
REMARK   69  A    between atoms: _161  and  _162
REMARK   70  A    between atoms: _167  and  _169
REMARK   71  A    between atoms: _169  and  _170
REMARK   72  A    between atoms: _169  and  _172
REMARK   73  A    between atoms: _172  and  _173
REMARK   74  A    between atoms: _179  and  _181
REMARK   75  A    between atoms: _181  and  _182
REMARK   76  A    between atoms: _181  and  _184
REMARK   77  A    between atoms: _184  and  _185
REMARK   78  A    between atoms: _190  and  _192
REMARK   79  A    between atoms: _192  and  _193
REMARK   80  A    between atoms: _192  and  _195
REMARK   81  A    between atoms: _195  and  _196
REMARK   82  A    between atoms: _201  and  _202
REMARK   83  A    between atoms: _204  and  _206
REMARK   84  A    between atoms: _206  and  _207
REMARK   85  A    between atoms: _206  and  _209
REMARK   86  A    between atoms: _211  and  _213
REMARK   87  A    between atoms: _213  and  _214
REMARK   88  A    between atoms: _213  and  _216
REMARK   89  A    between atoms: _216  and  _217
REMARK   90  A    between atoms: _217  and  _218
REMARK   91  A    between atoms: _218  and  _219
REMARK   92  A    between atoms: _219  and  _220
REMARK   93  A    between atoms: _224  and  _226
REMARK   94  A    between atoms: _226  and  _227
REMARK   95  A    between atoms: _226  and  _229
REMARK   96  A    between atoms: _229  and  _230
REMARK   97  A    between atoms: _230  and  _231
REMARK   98  A    between atoms: _234  and  _236
REMARK   99  A    between atoms: _236  and  _237
REMARK  100  A    between atoms: _236  and  _239
REMARK  101  A    between atoms: _241  and  _243
REMARK  102  A    between atoms: _243  and  _244
REMARK  103  A    between atoms: _247  and  _248
REMARK  104  A    between atoms: _253  and  _255
REMARK  105  A    between atoms: _255  and  _256
REMARK  106  A    between atoms: _255  and  _258
REMARK  107  A    between atoms: _261  and  _263
REMARK  108  A    between atoms: _263  and  _264
REMARK  109  A    between atoms: _263  and  _266
REMARK  110  A    between atoms: _266  and  _267
REMARK  111  A    between atoms: _270  and  _272
REMARK  112  A    between atoms: _272  and  _273
REMARK  113  A    between atoms: _276  and  _278
REMARK  114  A    between atoms: _278  and  _279
REMARK  115  A    between atoms: _278  and  _281
REMARK  116  A    between atoms: _281  and  _282
REMARK  117  A    between atoms: _288  and  _290
REMARK  118  A    between atoms: _290  and  _291
REMARK  119  A    between atoms: _290  and  _293
REMARK  120  A    between atoms: _293  and  _294
REMARK  121  A    between atoms: _294  and  _295
REMARK  122  A    between atoms: _297  and  _299
REMARK  123  A    between atoms: _299  and  _300
REMARK  124  A    between atoms: _299  and  _302
REMARK  125  A    between atoms: _302  and  _303
REMARK  126  A    between atoms: _303  and  _304
REMARK  127  A    between atoms: _307  and  _309
REMARK  128  A    between atoms: _309  and  _310
REMARK  129  A    between atoms: _309  and  _312
REMARK  130  A    between atoms: _312  and  _313
REMARK  131  A    between atoms: _313  and  _314
REMARK  132  A    between atoms: _314  and  _315
REMARK  133  A    between atoms: _315  and  _316
REMARK  134  A    between atoms: _320  and  _322
REMARK  135  A    between atoms: _322  and  _323
REMARK  136  A    between atoms: _322  and  _325
REMARK  137  A    between atoms: _328  and  _330
REMARK  138  A    between atoms: _330  and  _331
REMARK  139  A    between atoms: _330  and  _333
REMARK  140  A    between atoms: _333  and  _334
REMARK  141  A    between atoms: _337  and  _339
REMARK  142  A    between atoms: _339  and  _340
REMARK  143  A    between atoms: _339  and  _342
REMARK  144  A    between atoms: _342  and  _343
REMARK  145  A    between atoms: _348  and  _349
REMARK  146  A    between atoms: _351  and  _353
REMARK  147  A    between atoms: _353  and  _354
REMARK  148  A    between atoms: _353  and  _356
REMARK  149  A    between atoms: _356  and  _357
REMARK  150  A    between atoms: _360  and  _362
REMARK  151  A    between atoms: _362  and  _363
REMARK  152  A    between atoms: _362  and  _365
REMARK  153  A    between atoms: _365  and  _366
REMARK  154  A    between atoms: _371  and  _373
REMARK  155  A    between atoms: _373  and  _374
REMARK  156  A    between atoms: _373  and  _376
REMARK  157  A    between atoms: _376  and  _377
REMARK  158  A    between atoms: _379  and  _381
REMARK  159  A    between atoms: _381  and  _382
REMARK  160  A    between atoms: _381  and  _384
REMARK  161  A    between atoms: _384  and  _385
REMARK  162  A    between atoms: _385  and  _386
REMARK  163  A    between atoms: _386  and  _387
REMARK  164  A    between atoms: _387  and  _388
REMARK  165  A    between atoms: _392  and  _394
REMARK  166  A    between atoms: _394  and  _395
REMARK  167  A    between atoms: _394  and  _397
REMARK  168  A    between atoms: _397  and  _398
REMARK  169  A    between atoms: _398  and  _399
REMARK  170  A    between atoms: _404  and  _406
REMARK  171  A    between atoms: _406  and  _407
REMARK  172  A    between atoms: _406  and  _409
REMARK  173  A    between atoms: _412  and  _414
REMARK  174  A    between atoms: _414  and  _415
REMARK  175  A    between atoms: _414  and  _417
REMARK  176  A    between atoms: _417  and  _418
REMARK  177  A    between atoms: _424  and  _426
REMARK  178  A    between atoms: _426  and  _427
REMARK  179  A    between atoms: _430  and  _432
REMARK  180  A    between atoms: _432  and  _433
REMARK  181  A    between atoms: _432  and  _435
REMARK  182  A    between atoms: _435  and  _436
REMARK  183  A    between atoms: _439  and  _441
REMARK  184  A    between atoms: _441  and  _442
REMARK  185  A    between atoms: _441  and  _444
REMARK  186  A    between atoms: _444  and  _445
REMARK  187  A    between atoms: _445  and  _446
REMARK  188  A    between atoms: _446  and  _447
REMARK  189  A    between atoms: _456  and  _458
REMARK  190  A    between atoms: _458  and  _459
REMARK  191  A    between atoms: _458  and  _461
REMARK  192  A    between atoms: _461  and  _462
REMARK  193  A    between atoms: _468  and  _470
REMARK  194  A    between atoms: _470  and  _471
REMARK  195  A    between atoms: _470  and  _473
REMARK  196  A    between atoms: _473  and  _474
REMARK  197  A    between atoms: _477  and  _479
REMARK  198  A    between atoms: _479  and  _480
REMARK  199  A    between atoms: _479  and  _482
REMARK  200  A    between atoms: _482  and  _483
REMARK  201  A    between atoms: _488  and  _489
REMARK  202  A    between atoms: _491  and  _493
REMARK  203  A    between atoms: _493  and  _494
REMARK  204  A    between atoms: _497  and  _499
REMARK  205  A    between atoms: _499  and  _500
REMARK  206  A    between atoms: _499  and  _502
REMARK  207  A    between atoms: _502  and  _503
REMARK  208  A    between atoms: _503  and  _504
REMARK  209  A    between atoms: _506  and  _508
REMARK  210  A    between atoms: _508  and  _509
REMARK  211  A    between atoms: _508  and  _511
REMARK  212  A    between atoms: _511  and  _512
REMARK  213  A    between atoms: _517  and  _519
REMARK  214  A    between atoms: _519  and  _520
REMARK  215  A    between atoms: _519  and  _522
REMARK  216  A    between atoms: _522  and  _523
REMARK  217  A    between atoms: _523  and  _524
REMARK  218  A    between atoms: _524  and  _525
REMARK  219  A    between atoms: _534  and  _536
REMARK  220  A    between atoms: _536  and  _537
REMARK  221  A    between atoms: _536  and  _539
REMARK  222  A    between atoms: _539  and  _540
REMARK  223  A    between atoms: _540  and  _541
REMARK  224  A    between atoms: _544  and  _546
REMARK  225  A    between atoms: _546  and  _547
REMARK  226  A    between atoms: _546  and  _549
REMARK  227  A    between atoms: _552  and  _554
REMARK  228  A    between atoms: _554  and  _555
REMARK  229  A    between atoms: _554  and  _557
REMARK  230  A    between atoms: _557  and  _558
REMARK                            x       y       z     vdW  Elec       q    Type
REMARK                         _______ _______ _______ _____ _____    ______ ____
ROOT
ATOM      1  O   HOH     1      19.063   1.171  -3.880  0.00  0.00    +0.000 OA
ENDROOT
TORSDOF 0
REMARK  Name = ../refined-set-2016/3hb4/3hb4_pocket.pdb
REMARK  230 active torsions:
REMARK  status: ('A' for Active; 'I' for Inactive)
REMARK    1  A    between atoms: _1  and  _3
REMARK    2  A    between atoms: _3  and  _4
REMARK    3  A    between atoms: _3  and  _6
REMARK    4  A    between atoms: _6  and  _7
REMARK    5  A    between atoms: _9  and  _11
REMARK    6  A    between atoms: _11  and  _12
REMARK    7  A    between atoms: _11  and  _14
REMARK    8  A    between atoms: _14  and  _15
REMARK    9  A    between atoms: _18  and  _20
REMARK   10  A    between atoms: _20  and  _21
REMARK   11  A    between atoms: _20  and  _23
REMARK   12  A    between atoms: _23  and  _24
REMARK   13  A    between atoms: _29  and  _31
REMARK   14  A    between atoms: _31  and  _32
REMARK   15  A    between atoms: _35  and  _37
REMARK   16  A    between atoms: _37  and  _38
REMARK   17  A    between atoms: _40  and  _42
REMARK   18  A    between atoms: _42  and  _43
REMARK   19  A    between atoms: _42  and  _45
REMARK   20  A    between atoms: _45  and  _46
REMARK   21  A    between atoms: _49  and  _51
REMARK   22  A    between atoms: _51  and  _52
REMARK   23  A    between atoms: _54  and  _56
REMARK   24  A    between atoms: _56  and  _57
REMARK   25  A    between atoms: _56  and  _59
REMARK   26  A    between atoms: _59  and  _60
REMARK   27  A    between atoms: _63  and  _65
REMARK   28  A    between atoms: _65  and  _66
REMARK   29  A    between atoms: _65  and  _68
REMARK   30  A    between atoms: _68  and  _69
REMARK   31  A    between atoms: _72  and  _74
REMARK   32  A    between atoms: _74  and  _75
REMARK   33  A    between atoms: _77  and  _79
REMARK   34  A    between atoms: _79  and  _80
REMARK   35  A    between atoms: _79  and  _82
REMARK   36  A    between atoms: _82  and  _83
REMARK   37  A    between atoms: _88  and  _90
REMARK   38  A    between atoms: _90  and  _91
REMARK   39  A    between atoms: _90  and  _93
REMARK   40  A    between atoms: _93  and  _94
REMARK   41  A    between atoms: _97  and  _99
REMARK   42  A    between atoms: _99  and  _100
REMARK   43  A    between atoms: _102  and  _104
REMARK   44  A    between atoms: _104  and  _105
REMARK   45  A    between atoms: _104  and  _107
REMARK   46  A    between atoms: _107  and  _108
REMARK   47  A    between atoms: _110  and  _112
REMARK   48  A    between atoms: _112  and  _113
REMARK   49  A    between atoms: _112  and  _115
REMARK   50  A    between atoms: _118  and  _120
REMARK   51  A    between atoms: _120  and  _121
REMARK   52  A    between atoms: _123  and  _125
REMARK   53  A    between atoms: _125  and  _126
REMARK   54  A    between atoms: _128  and  _130
REMARK   55  A    between atoms: _130  and  _131
REMARK   56  A    between atoms: _130  and  _133
REMARK   57  A    between atoms: _133  and  _134
REMARK   58  A    between atoms: _137  and  _139
REMARK   59  A    between atoms: _139  and  _140
REMARK   60  A    between atoms: _139  and  _142
REMARK   61  A    between atoms: _142  and  _143
REMARK   62  A    between atoms: _143  and  _144
REMARK   63  A    between atoms: _146  and  _148
REMARK   64  A    between atoms: _148  and  _149
REMARK   65  A    between atoms: _151  and  _153
REMARK   66  A    between atoms: _153  and  _154
REMARK   67  A    between atoms: _153  and  _156
REMARK   68  A    between atoms: _156  and  _157
REMARK   69  A    between atoms: _161  and  _162
REMARK   70  A    between atoms: _167  and  _169
REMARK   71  A    between atoms: _169  and  _170
REMARK   72  A    between atoms: _169  and  _172
REMARK   73  A    between atoms: _172  and  _173
REMARK   74  A    between atoms: _179  and  _181
REMARK   75  A    between atoms: _181  and  _182
REMARK   76  A    between atoms: _181  and  _184
REMARK   77  A    between atoms: _184  and  _185
REMARK   78  A    between atoms: _190  and  _192
REMARK   79  A    between atoms: _192  and  _193
REMARK   80  A    between atoms: _192  and  _195
REMARK   81  A    between atoms: _195  and  _196
REMARK   82  A    between atoms: _201  and  _202
REMARK   83  A    between atoms: _204  and  _206
REMARK   84  A    between atoms: _206  and  _207
REMARK   85  A    between atoms: _206  and  _209
REMARK   86  A    between atoms: _211  and  _213
REMARK   87  A    between atoms: _213  and  _214
REMARK   88  A    between atoms: _213  and  _216
REMARK   89  A    between atoms: _216  and  _217
REMARK   90  A    between atoms: _217  and  _218
REMARK   91  A    between atoms: _218  and  _219
REMARK   92  A    between atoms: _219  and  _220
REMARK   93  A    between atoms: _224  and  _226
REMARK   94  A    between atoms: _226  and  _227
REMARK   95  A    between atoms: _226  and  _229
REMARK   96  A    between atoms: _229  and  _230
REMARK   97  A    between atoms: _230  and  _231
REMARK   98  A    between atoms: _234  and  _236
REMARK   99  A    between atoms: _236  and  _237
REMARK  100  A    between atoms: _236  and  _239
REMARK  101  A    between atoms: _241  and  _243
REMARK  102  A    between atoms: _243  and  _244
REMARK  103  A    between atoms: _247  and  _248
REMARK  104  A    between atoms: _253  and  _255
REMARK  105  A    between atoms: _255  and  _256
REMARK  106  A    between atoms: _255  and  _258
REMARK  107  A    between atoms: _261  and  _263
REMARK  108  A    between atoms: _263  and  _264
REMARK  109  A    between atoms: _263  and  _266
REMARK  110  A    between atoms: _266  and  _267
REMARK  111  A    between atoms: _270  and  _272
REMARK  112  A    between atoms: _272  and  _273
REMARK  113  A    between atoms: _276  and  _278
REMARK  114  A    between atoms: _278  and  _279
REMARK  115  A    between atoms: _278  and  _281
REMARK  116  A    between atoms: _281  and  _282
REMARK  117  A    between atoms: _288  and  _290
REMARK  118  A    between atoms: _290  and  _291
REMARK  119  A    between atoms: _290  and  _293
REMARK  120  A    between atoms: _293  and  _294
REMARK  121  A    between atoms: _294  and  _295
REMARK  122  A    between atoms: _297  and  _299
REMARK  123  A    between atoms: _299  and  _300
REMARK  124  A    between atoms: _299  and  _302
REMARK  125  A    between atoms: _302  and  _303
REMARK  126  A    between atoms: _303  and  _304
REMARK  127  A    between atoms: _307  and  _309
REMARK  128  A    between atoms: _309  and  _310
REMARK  129  A    between atoms: _309  and  _312
REMARK  130  A    between atoms: _312  and  _313
REMARK  131  A    between atoms: _313  and  _314
REMARK  132  A    between atoms: _314  and  _315
REMARK  133  A    between atoms: _315  and  _316
REMARK  134  A    between atoms: _320  and  _322
REMARK  135  A    between atoms: _322  and  _323
REMARK  136  A    between atoms: _322  and  _325
REMARK  137  A    between atoms: _328  and  _330
REMARK  138  A    between atoms: _330  and  _331
REMARK  139  A    between atoms: _330  and  _333
REMARK  140  A    between atoms: _333  and  _334
REMARK  141  A    between atoms: _337  and  _339
REMARK  142  A    between atoms: _339  and  _340
REMARK  143  A    between atoms: _339  and  _342
REMARK  144  A    between atoms: _342  and  _343
REMARK  145  A    between atoms: _348  and  _349
REMARK  146  A    between atoms: _351  and  _353
REMARK  147  A    between atoms: _353  and  _354
REMARK  148  A    between atoms: _353  and  _356
REMARK  149  A    between atoms: _356  and  _357
REMARK  150  A    between atoms: _360  and  _362
REMARK  151  A    between atoms: _362  and  _363
REMARK  152  A    between atoms: _362  and  _365
REMARK  153  A    between atoms: _365  and  _366
REMARK  154  A    between atoms: _371  and  _373
REMARK  155  A    between atoms: _373  and  _374
REMARK  156  A    between atoms: _373  and  _376
REMARK  157  A    between atoms: _376  and  _377
REMARK  158  A    between atoms: _379  and  _381
REMARK  159  A    between atoms: _381  and  _382
REMARK  160  A    between atoms: _381  and  _384
REMARK  161  A    between atoms: _384  and  _385
REMARK  162  A    between atoms: _385  and  _386
REMARK  163  A    between atoms: _386  and  _387
REMARK  164  A    between atoms: _387  and  _388
REMARK  165  A    between atoms: _392  and  _394
REMARK  166  A    between atoms: _394  and  _395
REMARK  167  A    between atoms: _394  and  _397
REMARK  168  A    between atoms: _397  and  _398
REMARK  169  A    between atoms: _398  and  _399
REMARK  170  A    between atoms: _404  and  _406
REMARK  171  A    between atoms: _406  and  _407
REMARK  172  A    between atoms: _406  and  _409
REMARK  173  A    between atoms: _412  and  _414
REMARK  174  A    between atoms: _414  and  _415
REMARK  175  A    between atoms: _414  and  _417
REMARK  176  A    between atoms: _417  and  _418
REMARK  177  A    between atoms: _424  and  _426
REMARK  178  A    between atoms: _426  and  _427
REMARK  179  A    between atoms: _430  and  _432
REMARK  180  A    between atoms: _432  and  _433
REMARK  181  A    between atoms: _432  and  _435
REMARK  182  A    between atoms: _435  and  _436
REMARK  183  A    between atoms: _439  and  _441
REMARK  184  A    between atoms: _441  and  _442
REMARK  185  A    between atoms: _441  and  _444
REMARK  186  A    between atoms: _444  and  _445
REMARK  187  A    between atoms: _445  and  _446
REMARK  188  A    between atoms: _446  and  _447
REMARK  189  A    between atoms: _456  and  _458
REMARK  190  A    between atoms: _458  and  _459
REMARK  191  A    between atoms: _458  and  _461
REMARK  192  A    between atoms: _461  and  _462
REMARK  193  A    between atoms: _468  and  _470
REMARK  194  A    between atoms: _470  and  _471
REMARK  195  A    between atoms: _470  and  _473
REMARK  196  A    between atoms: _473  and  _474
REMARK  197  A    between atoms: _477  and  _479
REMARK  198  A    between atoms: _479  and  _480
REMARK  199  A    between atoms: _479  and  _482
REMARK  200  A    between atoms: _482  and  _483
REMARK  201  A    between atoms: _488  and  _489
REMARK  202  A    between atoms: _491  and  _493
REMARK  203  A    between atoms: _493  and  _494
REMARK  204  A    between atoms: _497  and  _499
REMARK  205  A    between atoms: _499  and  _500
REMARK  206  A    between atoms: _499  and  _502
REMARK  207  A    between atoms: _502  and  _503
REMARK  208  A    between atoms: _503  and  _504
REMARK  209  A    between atoms: _506  and  _508
REMARK  210  A    between atoms: _508  and  _509
REMARK  211  A    between atoms: _508  and  _511
REMARK  212  A    between atoms: _511  and  _512
REMARK  213  A    between atoms: _517  and  _519
REMARK  214  A    between atoms: _519  and  _520
REMARK  215  A    between atoms: _519  and  _522
REMARK  216  A    between atoms: _522  and  _523
REMARK  217  A    between atoms: _523  and  _524
REMARK  218  A    between atoms: _524  and  _525
REMARK  219  A    between atoms: _534  and  _536
REMARK  220  A    between atoms: _536  and  _537
REMARK  221  A    between atoms: _536  and  _539
REMARK  222  A    between atoms: _539  and  _540
REMARK  223  A    between atoms: _540  and  _541
REMARK  224  A    between atoms: _544  and  _546
REMARK  225  A    between atoms: _546  and  _547
REMARK  226  A    between atoms: _546  and  _549
REMARK  227  A    between atoms: _552  and  _554
REMARK  228  A    between atoms: _554  and  _555
REMARK  229  A    between atoms: _554  and  _557
REMARK  230  A    between atoms: _557  and  _558
REMARK                            x       y       z     vdW  Elec       q    Type
REMARK                         _______ _______ _______ _____ _____    ______ ____
ROOT
ATOM      1  O   HOH     1       4.022  -0.744 -11.165  0.00  0.00    +0.000 OA
ENDROOT
TORSDOF 0
REMARK  Name = ../refined-set-2016/3hb4/3hb4_pocket.pdb
REMARK  230 active torsions:
REMARK  status: ('A' for Active; 'I' for Inactive)
REMARK    1  A    between atoms: _1  and  _3
REMARK    2  A    between atoms: _3  and  _4
REMARK    3  A    between atoms: _3  and  _6
REMARK    4  A    between atoms: _6  and  _7
REMARK    5  A    between atoms: _9  and  _11
REMARK    6  A    between atoms: _11  and  _12
REMARK    7  A    between atoms: _11  and  _14
REMARK    8  A    between atoms: _14  and  _15
REMARK    9  A    between atoms: _18  and  _20
REMARK   10  A    between atoms: _20  and  _21
REMARK   11  A    between atoms: _20  and  _23
REMARK   12  A    between atoms: _23  and  _24
REMARK   13  A    between atoms: _29  and  _31
REMARK   14  A    between atoms: _31  and  _32
REMARK   15  A    between atoms: _35  and  _37
REMARK   16  A    between atoms: _37  and  _38
REMARK   17  A    between atoms: _40  and  _42
REMARK   18  A    between atoms: _42  and  _43
REMARK   19  A    between atoms: _42  and  _45
REMARK   20  A    between atoms: _45  and  _46
REMARK   21  A    between atoms: _49  and  _51
REMARK   22  A    between atoms: _51  and  _52
REMARK   23  A    between atoms: _54  and  _56
REMARK   24  A    between atoms: _56  and  _57
REMARK   25  A    between atoms: _56  and  _59
REMARK   26  A    between atoms: _59  and  _60
REMARK   27  A    between atoms: _63  and  _65
REMARK   28  A    between atoms: _65  and  _66
REMARK   29  A    between atoms: _65  and  _68
REMARK   30  A    between atoms: _68  and  _69
REMARK   31  A    between atoms: _72  and  _74
REMARK   32  A    between atoms: _74  and  _75
REMARK   33  A    between atoms: _77  and  _79
REMARK   34  A    between atoms: _79  and  _80
REMARK   35  A    between atoms: _79  and  _82
REMARK   36  A    between atoms: _82  and  _83
REMARK   37  A    between atoms: _88  and  _90
REMARK   38  A    between atoms: _90  and  _91
REMARK   39  A    between atoms: _90  and  _93
REMARK   40  A    between atoms: _93  and  _94
REMARK   41  A    between atoms: _97  and  _99
REMARK   42  A    between atoms: _99  and  _100
REMARK   43  A    between atoms: _102  and  _104
REMARK   44  A    between atoms: _104  and  _105
REMARK   45  A    between atoms: _104  and  _107
REMARK   46  A    between atoms: _107  and  _108
REMARK   47  A    between atoms: _110  and  _112
REMARK   48  A    between atoms: _112  and  _113
REMARK   49  A    between atoms: _112  and  _115
REMARK   50  A    between atoms: _118  and  _120
REMARK   51  A    between atoms: _120  and  _121
REMARK   52  A    between atoms: _123  and  _125
REMARK   53  A    between atoms: _125  and  _126
REMARK   54  A    between atoms: _128  and  _130
REMARK   55  A    between atoms: _130  and  _131
REMARK   56  A    between atoms: _130  and  _133
REMARK   57  A    between atoms: _133  and  _134
REMARK   58  A    between atoms: _137  and  _139
REMARK   59  A    between atoms: _139  and  _140
REMARK   60  A    between atoms: _139  and  _142
REMARK   61  A    between atoms: _142  and  _143
REMARK   62  A    between atoms: _143  and  _144
REMARK   63  A    between atoms: _146  and  _148
REMARK   64  A    between atoms: _148  and  _149
REMARK   65  A    between atoms: _151  and  _153
REMARK   66  A    between atoms: _153  and  _154
REMARK   67  A    between atoms: _153  and  _156
REMARK   68  A    between atoms: _156  and  _157
REMARK   69  A    between atoms: _161  and  _162
REMARK   70  A    between atoms: _167  and  _169
REMARK   71  A    between atoms: _169  and  _170
REMARK   72  A    between atoms: _169  and  _172
REMARK   73  A    between atoms: _172  and  _173
REMARK   74  A    between atoms: _179  and  _181
REMARK   75  A    between atoms: _181  and  _182
REMARK   76  A    between atoms: _181  and  _184
REMARK   77  A    between atoms: _184  and  _185
REMARK   78  A    between atoms: _190  and  _192
REMARK   79  A    between atoms: _192  and  _193
REMARK   80  A    between atoms: _192  and  _195
REMARK   81  A    between atoms: _195  and  _196
REMARK   82  A    between atoms: _201  and  _202
REMARK   83  A    between atoms: _204  and  _206
REMARK   84  A    between atoms: _206  and  _207
REMARK   85  A    between atoms: _206  and  _209
REMARK   86  A    between atoms: _211  and  _213
REMARK   87  A    between atoms: _213  and  _214
REMARK   88  A    between atoms: _213  and  _216
REMARK   89  A    between atoms: _216  and  _217
REMARK   90  A    between atoms: _217  and  _218
REMARK   91  A    between atoms: _218  and  _219
REMARK   92  A    between atoms: _219  and  _220
REMARK   93  A    between atoms: _224  and  _226
REMARK   94  A    between atoms: _226  and  _227
REMARK   95  A    between atoms: _226  and  _229
REMARK   96  A    between atoms: _229  and  _230
REMARK   97  A    between atoms: _230  and  _231
REMARK   98  A    between atoms: _234  and  _236
REMARK   99  A    between atoms: _236  and  _237
REMARK  100  A    between atoms: _236  and  _239
REMARK  101  A    between atoms: _241  and  _243
REMARK  102  A    between atoms: _243  and  _244
REMARK  103  A    between atoms: _247  and  _248
REMARK  104  A    between atoms: _253  and  _255
REMARK  105  A    between atoms: _255  and  _256
REMARK  106  A    between atoms: _255  and  _258
REMARK  107  A    between atoms: _261  and  _263
REMARK  108  A    between atoms: _263  and  _264
REMARK  109  A    between atoms: _263  and  _266
REMARK  110  A    between atoms: _266  and  _267
REMARK  111  A    between atoms: _270  and  _272
REMARK  112  A    between atoms: _272  and  _273
REMARK  113  A    between atoms: _276  and  _278
REMARK  114  A    between atoms: _278  and  _279
REMARK  115  A    between atoms: _278  and  _281
REMARK  116  A    between atoms: _281  and  _282
REMARK  117  A    between atoms: _288  and  _290
REMARK  118  A    between atoms: _290  and  _291
REMARK  119  A    between atoms: _290  and  _293
REMARK  120  A    between atoms: _293  and  _294
REMARK  121  A    between atoms: _294  and  _295
REMARK  122  A    between atoms: _297  and  _299
REMARK  123  A    between atoms: _299  and  _300
REMARK  124  A    between atoms: _299  and  _302
REMARK  125  A    between atoms: _302  and  _303
REMARK  126  A    between atoms: _303  and  _304
REMARK  127  A    between atoms: _307  and  _309
REMARK  128  A    between atoms: _309  and  _310
REMARK  129  A    between atoms: _309  and  _312
REMARK  130  A    between atoms: _312  and  _313
REMARK  131  A    between atoms: _313  and  _314
REMARK  132  A    between atoms: _314  and  _315
REMARK  133  A    between atoms: _315  and  _316
REMARK  134  A    between atoms: _320  and  _322
REMARK  135  A    between atoms: _322  and  _323
REMARK  136  A    between atoms: _322  and  _325
REMARK  137  A    between atoms: _328  and  _330
REMARK  138  A    between atoms: _330  and  _331
REMARK  139  A    between atoms: _330  and  _333
REMARK  140  A    between atoms: _333  and  _334
REMARK  141  A    between atoms: _337  and  _339
REMARK  142  A    between atoms: _339  and  _340
REMARK  143  A    between atoms: _339  and  _342
REMARK  144  A    between atoms: _342  and  _343
REMARK  145  A    between atoms: _348  and  _349
REMARK  146  A    between atoms: _351  and  _353
REMARK  147  A    between atoms: _353  and  _354
REMARK  148  A    between atoms: _353  and  _356
REMARK  149  A    between atoms: _356  and  _357
REMARK  150  A    between atoms: _360  and  _362
REMARK  151  A    between atoms: _362  and  _363
REMARK  152  A    between atoms: _362  and  _365
REMARK  153  A    between atoms: _365  and  _366
REMARK  154  A    between atoms: _371  and  _373
REMARK  155  A    between atoms: _373  and  _374
REMARK  156  A    between atoms: _373  and  _376
REMARK  157  A    between atoms: _376  and  _377
REMARK  158  A    between atoms: _379  and  _381
REMARK  159  A    between atoms: _381  and  _382
REMARK  160  A    between atoms: _381  and  _384
REMARK  161  A    between atoms: _384  and  _385
REMARK  162  A    between atoms: _385  and  _386
REMARK  163  A    between atoms: _386  and  _387
REMARK  164  A    between atoms: _387  and  _388
REMARK  165  A    between atoms: _392  and  _394
REMARK  166  A    between atoms: _394  and  _395
REMARK  167  A    between atoms: _394  and  _397
REMARK  168  A    between atoms: _397  and  _398
REMARK  169  A    between atoms: _398  and  _399
REMARK  170  A    between atoms: _404  and  _406
REMARK  171  A    between atoms: _406  and  _407
REMARK  172  A    between atoms: _406  and  _409
REMARK  173  A    between atoms: _412  and  _414
REMARK  174  A    between atoms: _414  and  _415
REMARK  175  A    between atoms: _414  and  _417
REMARK  176  A    between atoms: _417  and  _418
REMARK  177  A    between atoms: _424  and  _426
REMARK  178  A    between atoms: _426  and  _427
REMARK  179  A    between atoms: _430  and  _432
REMARK  180  A    between atoms: _432  and  _433
REMARK  181  A    between atoms: _432  and  _435
REMARK  182  A    between atoms: _435  and  _436
REMARK  183  A    between atoms: _439  and  _441
REMARK  184  A    between atoms: _441  and  _442
REMARK  185  A    between atoms: _441  and  _444
REMARK  186  A    between atoms: _444  and  _445
REMARK  187  A    between atoms: _445  and  _446
REMARK  188  A    between atoms: _446  and  _447
REMARK  189  A    between atoms: _456  and  _458
REMARK  190  A    between atoms: _458  and  _459
REMARK  191  A    between atoms: _458  and  _461
REMARK  192  A    between atoms: _461  and  _462
REMARK  193  A    between atoms: _468  and  _470
REMARK  194  A    between atoms: _470  and  _471
REMARK  195  A    between atoms: _470  and  _473
REMARK  196  A    between atoms: _473  and  _474
REMARK  197  A    between atoms: _477  and  _479
REMARK  198  A    between atoms: _479  and  _480
REMARK  199  A    between atoms: _479  and  _482
REMARK  200  A    between atoms: _482  and  _483
REMARK  201  A    between atoms: _488  and  _489
REMARK  202  A    between atoms: _491  and  _493
REMARK  203  A    between atoms: _493  and  _494
REMARK  204  A    between atoms: _497  and  _499
REMARK  205  A    between atoms: _499  and  _500
REMARK  206  A    between atoms: _499  and  _502
REMARK  207  A    between atoms: _502  and  _503
REMARK  208  A    between atoms: _503  and  _504
REMARK  209  A    between atoms: _506  and  _508
REMARK  210  A    between atoms: _508  and  _509
REMARK  211  A    between atoms: _508  and  _511
REMARK  212  A    between atoms: _511  and  _512
REMARK  213  A    between atoms: _517  and  _519
REMARK  214  A    between atoms: _519  and  _520
REMARK  215  A    between atoms: _519  and  _522
REMARK  216  A    between atoms: _522  and  _523
REMARK  217  A    between atoms: _523  and  _524
REMARK  218  A    between atoms: _524  and  _525
REMARK  219  A    between atoms: _534  and  _536
REMARK  220  A    between atoms: _536  and  _537
REMARK  221  A    between atoms: _536  and  _539
REMARK  222  A    between atoms: _539  and  _540
REMARK  223  A    between atoms: _540  and  _541
REMARK  224  A    between atoms: _544  and  _546
REMARK  225  A    between atoms: _546  and  _547
REMARK  226  A    between atoms: _546  and  _549
REMARK  227  A    between atoms: _552  and  _554
REMARK  228  A    between atoms: _554  and  _555
REMARK  229  A    between atoms: _554  and  _557
REMARK  230  A    between atoms: _557  and  _558
REMARK                            x       y       z     vdW  Elec       q    Type
REMARK                         _______ _______ _______ _____ _____    ______ ____
ROOT
ATOM      1  O   HOH     1      17.434  11.683  -6.327  0.00  0.00    +0.000 OA
ENDROOT
TORSDOF 0
REMARK  Name = ../refined-set-2016/3hb4/3hb4_pocket.pdb
REMARK  230 active torsions:
REMARK  status: ('A' for Active; 'I' for Inactive)
REMARK    1  A    between atoms: _1  and  _3
REMARK    2  A    between atoms: _3  and  _4
REMARK    3  A    between atoms: _3  and  _6
REMARK    4  A    between atoms: _6  and  _7
REMARK    5  A    between atoms: _9  and  _11
REMARK    6  A    between atoms: _11  and  _12
REMARK    7  A    between atoms: _11  and  _14
REMARK    8  A    between atoms: _14  and  _15
REMARK    9  A    between atoms: _18  and  _20
REMARK   10  A    between atoms: _20  and  _21
REMARK   11  A    between atoms: _20  and  _23
REMARK   12  A    between atoms: _23  and  _24
REMARK   13  A    between atoms: _29  and  _31
REMARK   14  A    between atoms: _31  and  _32
REMARK   15  A    between atoms: _35  and  _37
REMARK   16  A    between atoms: _37  and  _38
REMARK   17  A    between atoms: _40  and  _42
REMARK   18  A    between atoms: _42  and  _43
REMARK   19  A    between atoms: _42  and  _45
REMARK   20  A    between atoms: _45  and  _46
REMARK   21  A    between atoms: _49  and  _51
REMARK   22  A    between atoms: _51  and  _52
REMARK   23  A    between atoms: _54  and  _56
REMARK   24  A    between atoms: _56  and  _57
REMARK   25  A    between atoms: _56  and  _59
REMARK   26  A    between atoms: _59  and  _60
REMARK   27  A    between atoms: _63  and  _65
REMARK   28  A    between atoms: _65  and  _66
REMARK   29  A    between atoms: _65  and  _68
REMARK   30  A    between atoms: _68  and  _69
REMARK   31  A    between atoms: _72  and  _74
REMARK   32  A    between atoms: _74  and  _75
REMARK   33  A    between atoms: _77  and  _79
REMARK   34  A    between atoms: _79  and  _80
REMARK   35  A    between atoms: _79  and  _82
REMARK   36  A    between atoms: _82  and  _83
REMARK   37  A    between atoms: _88  and  _90
REMARK   38  A    between atoms: _90  and  _91
REMARK   39  A    between atoms: _90  and  _93
REMARK   40  A    between atoms: _93  and  _94
REMARK   41  A    between atoms: _97  and  _99
REMARK   42  A    between atoms: _99  and  _100
REMARK   43  A    between atoms: _102  and  _104
REMARK   44  A    between atoms: _104  and  _105
REMARK   45  A    between atoms: _104  and  _107
REMARK   46  A    between atoms: _107  and  _108
REMARK   47  A    between atoms: _110  and  _112
REMARK   48  A    between atoms: _112  and  _113
REMARK   49  A    between atoms: _112  and  _115
REMARK   50  A    between atoms: _118  and  _120
REMARK   51  A    between atoms: _120  and  _121
REMARK   52  A    between atoms: _123  and  _125
REMARK   53  A    between atoms: _125  and  _126
REMARK   54  A    between atoms: _128  and  _130
REMARK   55  A    between atoms: _130  and  _131
REMARK   56  A    between atoms: _130  and  _133
REMARK   57  A    between atoms: _133  and  _134
REMARK   58  A    between atoms: _137  and  _139
REMARK   59  A    between atoms: _139  and  _140
REMARK   60  A    between atoms: _139  and  _142
REMARK   61  A    between atoms: _142  and  _143
REMARK   62  A    between atoms: _143  and  _144
REMARK   63  A    between atoms: _146  and  _148
REMARK   64  A    between atoms: _148  and  _149
REMARK   65  A    between atoms: _151  and  _153
REMARK   66  A    between atoms: _153  and  _154
REMARK   67  A    between atoms: _153  and  _156
REMARK   68  A    between atoms: _156  and  _157
REMARK   69  A    between atoms: _161  and  _162
REMARK   70  A    between atoms: _167  and  _169
REMARK   71  A    between atoms: _169  and  _170
REMARK   72  A    between atoms: _169  and  _172
REMARK   73  A    between atoms: _172  and  _173
REMARK   74  A    between atoms: _179  and  _181
REMARK   75  A    between atoms: _181  and  _182
REMARK   76  A    between atoms: _181  and  _184
REMARK   77  A    between atoms: _184  and  _185
REMARK   78  A    between atoms: _190  and  _192
REMARK   79  A    between atoms: _192  and  _193
REMARK   80  A    between atoms: _192  and  _195
REMARK   81  A    between atoms: _195  and  _196
REMARK   82  A    between atoms: _201  and  _202
REMARK   83  A    between atoms: _204  and  _206
REMARK   84  A    between atoms: _206  and  _207
REMARK   85  A    between atoms: _206  and  _209
REMARK   86  A    between atoms: _211  and  _213
REMARK   87  A    between atoms: _213  and  _214
REMARK   88  A    between atoms: _213  and  _216
REMARK   89  A    between atoms: _216  and  _217
REMARK   90  A    between atoms: _217  and  _218
REMARK   91  A    between atoms: _218  and  _219
REMARK   92  A    between atoms: _219  and  _220
REMARK   93  A    between atoms: _224  and  _226
REMARK   94  A    between atoms: _226  and  _227
REMARK   95  A    between atoms: _226  and  _229
REMARK   96  A    between atoms: _229  and  _230
REMARK   97  A    between atoms: _230  and  _231
REMARK   98  A    between atoms: _234  and  _236
REMARK   99  A    between atoms: _236  and  _237
REMARK  100  A    between atoms: _236  and  _239
REMARK  101  A    between atoms: _241  and  _243
REMARK  102  A    between atoms: _243  and  _244
REMARK  103  A    between atoms: _247  and  _248
REMARK  104  A    between atoms: _253  and  _255
REMARK  105  A    between atoms: _255  and  _256
REMARK  106  A    between atoms: _255  and  _258
REMARK  107  A    between atoms: _261  and  _263
REMARK  108  A    between atoms: _263  and  _264
REMARK  109  A    between atoms: _263  and  _266
REMARK  110  A    between atoms: _266  and  _267
REMARK  111  A    between atoms: _270  and  _272
REMARK  112  A    between atoms: _272  and  _273
REMARK  113  A    between atoms: _276  and  _278
REMARK  114  A    between atoms: _278  and  _279
REMARK  115  A    between atoms: _278  and  _281
REMARK  116  A    between atoms: _281  and  _282
REMARK  117  A    between atoms: _288  and  _290
REMARK  118  A    between atoms: _290  and  _291
REMARK  119  A    between atoms: _290  and  _293
REMARK  120  A    between atoms: _293  and  _294
REMARK  121  A    between atoms: _294  and  _295
REMARK  122  A    between atoms: _297  and  _299
REMARK  123  A    between atoms: _299  and  _300
REMARK  124  A    between atoms: _299  and  _302
REMARK  125  A    between atoms: _302  and  _303
REMARK  126  A    between atoms: _303  and  _304
REMARK  127  A    between atoms: _307  and  _309
REMARK  128  A    between atoms: _309  and  _310
REMARK  129  A    between atoms: _309  and  _312
REMARK  130  A    between atoms: _312  and  _313
REMARK  131  A    between atoms: _313  and  _314
REMARK  132  A    between atoms: _314  and  _315
REMARK  133  A    between atoms: _315  and  _316
REMARK  134  A    between atoms: _320  and  _322
REMARK  135  A    between atoms: _322  and  _323
REMARK  136  A    between atoms: _322  and  _325
REMARK  137  A    between atoms: _328  and  _330
REMARK  138  A    between atoms: _330  and  _331
REMARK  139  A    between atoms: _330  and  _333
REMARK  140  A    between atoms: _333  and  _334
REMARK  141  A    between atoms: _337  and  _339
REMARK  142  A    between atoms: _339  and  _340
REMARK  143  A    between atoms: _339  and  _342
REMARK  144  A    between atoms: _342  and  _343
REMARK  145  A    between atoms: _348  and  _349
REMARK  146  A    between atoms: _351  and  _353
REMARK  147  A    between atoms: _353  and  _354
REMARK  148  A    between atoms: _353  and  _356
REMARK  149  A    between atoms: _356  and  _357
REMARK  150  A    between atoms: _360  and  _362
REMARK  151  A    between atoms: _362  and  _363
REMARK  152  A    between atoms: _362  and  _365
REMARK  153  A    between atoms: _365  and  _366
REMARK  154  A    between atoms: _371  and  _373
REMARK  155  A    between atoms: _373  and  _374
REMARK  156  A    between atoms: _373  and  _376
REMARK  157  A    between atoms: _376  and  _377
REMARK  158  A    between atoms: _379  and  _381
REMARK  159  A    between atoms: _381  and  _382
REMARK  160  A    between atoms: _381  and  _384
REMARK  161  A    between atoms: _384  and  _385
REMARK  162  A    between atoms: _385  and  _386
REMARK  163  A    between atoms: _386  and  _387
REMARK  164  A    between atoms: _387  and  _388
REMARK  165  A    between atoms: _392  and  _394
REMARK  166  A    between atoms: _394  and  _395
REMARK  167  A    between atoms: _394  and  _397
REMARK  168  A    between atoms: _397  and  _398
REMARK  169  A    between atoms: _398  and  _399
REMARK  170  A    between atoms: _404  and  _406
REMARK  171  A    between atoms: _406  and  _407
REMARK  172  A    between atoms: _406  and  _409
REMARK  173  A    between atoms: _412  and  _414
REMARK  174  A    between atoms: _414  and  _415
REMARK  175  A    between atoms: _414  and  _417
REMARK  176  A    between atoms: _417  and  _418
REMARK  177  A    between atoms: _424  and  _426
REMARK  178  A    between atoms: _426  and  _427
REMARK  179  A    between atoms: _430  and  _432
REMARK  180  A    between atoms: _432  and  _433
REMARK  181  A    between atoms: _432  and  _435
REMARK  182  A    between atoms: _435  and  _436
REMARK  183  A    between atoms: _439  and  _441
REMARK  184  A    between atoms: _441  and  _442
REMARK  185  A    between atoms: _441  and  _444
REMARK  186  A    between atoms: _444  and  _445
REMARK  187  A    between atoms: _445  and  _446
REMARK  188  A    between atoms: _446  and  _447
REMARK  189  A    between atoms: _456  and  _458
REMARK  190  A    between atoms: _458  and  _459
REMARK  191  A    between atoms: _458  and  _461
REMARK  192  A    between atoms: _461  and  _462
REMARK  193  A    between atoms: _468  and  _470
REMARK  194  A    between atoms: _470  and  _471
REMARK  195  A    between atoms: _470  and  _473
REMARK  196  A    between atoms: _473  and  _474
REMARK  197  A    between atoms: _477  and  _479
REMARK  198  A    between atoms: _479  and  _480
REMARK  199  A    between atoms: _479  and  _482
REMARK  200  A    between atoms: _482  and  _483
REMARK  201  A    between atoms: _488  and  _489
REMARK  202  A    between atoms: _491  and  _493
REMARK  203  A    between atoms: _493  and  _494
REMARK  204  A    between atoms: _497  and  _499
REMARK  205  A    between atoms: _499  and  _500
REMARK  206  A    between atoms: _499  and  _502
REMARK  207  A    between atoms: _502  and  _503
REMARK  208  A    between atoms: _503  and  _504
REMARK  209  A    between atoms: _506  and  _508
REMARK  210  A    between atoms: _508  and  _509
REMARK  211  A    between atoms: _508  and  _511
REMARK  212  A    between atoms: _511  and  _512
REMARK  213  A    between atoms: _517  and  _519
REMARK  214  A    between atoms: _519  and  _520
REMARK  215  A    between atoms: _519  and  _522
REMARK  216  A    between atoms: _522  and  _523
REMARK  217  A    between atoms: _523  and  _524
REMARK  218  A    between atoms: _524  and  _525
REMARK  219  A    between atoms: _534  and  _536
REMARK  220  A    between atoms: _536  and  _537
REMARK  221  A    between atoms: _536  and  _539
REMARK  222  A    between atoms: _539  and  _540
REMARK  223  A    between atoms: _540  and  _541
REMARK  224  A    between atoms: _544  and  _546
REMARK  225  A    between atoms: _546  and  _547
REMARK  226  A    between atoms: _546  and  _549
REMARK  227  A    between atoms: _552  and  _554
REMARK  228  A    between atoms: _554  and  _555
REMARK  229  A    between atoms: _554  and  _557
REMARK  230  A    between atoms: _557  and  _558
REMARK                            x       y       z     vdW  Elec       q    Type
REMARK                         _______ _______ _______ _____ _____    ______ ____
ROOT
ATOM      1  O   HOH     1      11.639  -0.569  -3.731  0.00  0.00    +0.000 OA
ENDROOT
TORSDOF 0
REMARK  Name = ../refined-set-2016/3hb4/3hb4_pocket.pdb
REMARK  230 active torsions:
REMARK  status: ('A' for Active; 'I' for Inactive)
REMARK    1  A    between atoms: _1  and  _3
REMARK    2  A    between atoms: _3  and  _4
REMARK    3  A    between atoms: _3  and  _6
REMARK    4  A    between atoms: _6  and  _7
REMARK    5  A    between atoms: _9  and  _11
REMARK    6  A    between atoms: _11  and  _12
REMARK    7  A    between atoms: _11  and  _14
REMARK    8  A    between atoms: _14  and  _15
REMARK    9  A    between atoms: _18  and  _20
REMARK   10  A    between atoms: _20  and  _21
REMARK   11  A    between atoms: _20  and  _23
REMARK   12  A    between atoms: _23  and  _24
REMARK   13  A    between atoms: _29  and  _31
REMARK   14  A    between atoms: _31  and  _32
REMARK   15  A    between atoms: _35  and  _37
REMARK   16  A    between atoms: _37  and  _38
REMARK   17  A    between atoms: _40  and  _42
REMARK   18  A    between atoms: _42  and  _43
REMARK   19  A    between atoms: _42  and  _45
REMARK   20  A    between atoms: _45  and  _46
REMARK   21  A    between atoms: _49  and  _51
REMARK   22  A    between atoms: _51  and  _52
REMARK   23  A    between atoms: _54  and  _56
REMARK   24  A    between atoms: _56  and  _57
REMARK   25  A    between atoms: _56  and  _59
REMARK   26  A    between atoms: _59  and  _60
REMARK   27  A    between atoms: _63  and  _65
REMARK   28  A    between atoms: _65  and  _66
REMARK   29  A    between atoms: _65  and  _68
REMARK   30  A    between atoms: _68  and  _69
REMARK   31  A    between atoms: _72  and  _74
REMARK   32  A    between atoms: _74  and  _75
REMARK   33  A    between atoms: _77  and  _79
REMARK   34  A    between atoms: _79  and  _80
REMARK   35  A    between atoms: _79  and  _82
REMARK   36  A    between atoms: _82  and  _83
REMARK   37  A    between atoms: _88  and  _90
REMARK   38  A    between atoms: _90  and  _91
REMARK   39  A    between atoms: _90  and  _93
REMARK   40  A    between atoms: _93  and  _94
REMARK   41  A    between atoms: _97  and  _99
REMARK   42  A    between atoms: _99  and  _100
REMARK   43  A    between atoms: _102  and  _104
REMARK   44  A    between atoms: _104  and  _105
REMARK   45  A    between atoms: _104  and  _107
REMARK   46  A    between atoms: _107  and  _108
REMARK   47  A    between atoms: _110  and  _112
REMARK   48  A    between atoms: _112  and  _113
REMARK   49  A    between atoms: _112  and  _115
REMARK   50  A    between atoms: _118  and  _120
REMARK   51  A    between atoms: _120  and  _121
REMARK   52  A    between atoms: _123  and  _125
REMARK   53  A    between atoms: _125  and  _126
REMARK   54  A    between atoms: _128  and  _130
REMARK   55  A    between atoms: _130  and  _131
REMARK   56  A    between atoms: _130  and  _133
REMARK   57  A    between atoms: _133  and  _134
REMARK   58  A    between atoms: _137  and  _139
REMARK   59  A    between atoms: _139  and  _140
REMARK   60  A    between atoms: _139  and  _142
REMARK   61  A    between atoms: _142  and  _143
REMARK   62  A    between atoms: _143  and  _144
REMARK   63  A    between atoms: _146  and  _148
REMARK   64  A    between atoms: _148  and  _149
REMARK   65  A    between atoms: _151  and  _153
REMARK   66  A    between atoms: _153  and  _154
REMARK   67  A    between atoms: _153  and  _156
REMARK   68  A    between atoms: _156  and  _157
REMARK   69  A    between atoms: _161  and  _162
REMARK   70  A    between atoms: _167  and  _169
REMARK   71  A    between atoms: _169  and  _170
REMARK   72  A    between atoms: _169  and  _172
REMARK   73  A    between atoms: _172  and  _173
REMARK   74  A    between atoms: _179  and  _181
REMARK   75  A    between atoms: _181  and  _182
REMARK   76  A    between atoms: _181  and  _184
REMARK   77  A    between atoms: _184  and  _185
REMARK   78  A    between atoms: _190  and  _192
REMARK   79  A    between atoms: _192  and  _193
REMARK   80  A    between atoms: _192  and  _195
REMARK   81  A    between atoms: _195  and  _196
REMARK   82  A    between atoms: _201  and  _202
REMARK   83  A    between atoms: _204  and  _206
REMARK   84  A    between atoms: _206  and  _207
REMARK   85  A    between atoms: _206  and  _209
REMARK   86  A    between atoms: _211  and  _213
REMARK   87  A    between atoms: _213  and  _214
REMARK   88  A    between atoms: _213  and  _216
REMARK   89  A    between atoms: _216  and  _217
REMARK   90  A    between atoms: _217  and  _218
REMARK   91  A    between atoms: _218  and  _219
REMARK   92  A    between atoms: _219  and  _220
REMARK   93  A    between atoms: _224  and  _226
REMARK   94  A    between atoms: _226  and  _227
REMARK   95  A    between atoms: _226  and  _229
REMARK   96  A    between atoms: _229  and  _230
REMARK   97  A    between atoms: _230  and  _231
REMARK   98  A    between atoms: _234  and  _236
REMARK   99  A    between atoms: _236  and  _237
REMARK  100  A    between atoms: _236  and  _239
REMARK  101  A    between atoms: _241  and  _243
REMARK  102  A    between atoms: _243  and  _244
REMARK  103  A    between atoms: _247  and  _248
REMARK  104  A    between atoms: _253  and  _255
REMARK  105  A    between atoms: _255  and  _256
REMARK  106  A    between atoms: _255  and  _258
REMARK  107  A    between atoms: _261  and  _263
REMARK  108  A    between atoms: _263  and  _264
REMARK  109  A    between atoms: _263  and  _266
REMARK  110  A    between atoms: _266  and  _267
REMARK  111  A    between atoms: _270  and  _272
REMARK  112  A    between atoms: _272  and  _273
REMARK  113  A    between atoms: _276  and  _278
REMARK  114  A    between atoms: _278  and  _279
REMARK  115  A    between atoms: _278  and  _281
REMARK  116  A    between atoms: _281  and  _282
REMARK  117  A    between atoms: _288  and  _290
REMARK  118  A    between atoms: _290  and  _291
REMARK  119  A    between atoms: _290  and  _293
REMARK  120  A    between atoms: _293  and  _294
REMARK  121  A    between atoms: _294  and  _295
REMARK  122  A    between atoms: _297  and  _299
REMARK  123  A    between atoms: _299  and  _300
REMARK  124  A    between atoms: _299  and  _302
REMARK  125  A    between atoms: _302  and  _303
REMARK  126  A    between atoms: _303  and  _304
REMARK  127  A    between atoms: _307  and  _309
REMARK  128  A    between atoms: _309  and  _310
REMARK  129  A    between atoms: _309  and  _312
REMARK  130  A    between atoms: _312  and  _313
REMARK  131  A    between atoms: _313  and  _314
REMARK  132  A    between atoms: _314  and  _315
REMARK  133  A    between atoms: _315  and  _316
REMARK  134  A    between atoms: _320  and  _322
REMARK  135  A    between atoms: _322  and  _323
REMARK  136  A    between atoms: _322  and  _325
REMARK  137  A    between atoms: _328  and  _330
REMARK  138  A    between atoms: _330  and  _331
REMARK  139  A    between atoms: _330  and  _333
REMARK  140  A    between atoms: _333  and  _334
REMARK  141  A    between atoms: _337  and  _339
REMARK  142  A    between atoms: _339  and  _340
REMARK  143  A    between atoms: _339  and  _342
REMARK  144  A    between atoms: _342  and  _343
REMARK  145  A    between atoms: _348  and  _349
REMARK  146  A    between atoms: _351  and  _353
REMARK  147  A    between atoms: _353  and  _354
REMARK  148  A    between atoms: _353  and  _356
REMARK  149  A    between atoms: _356  and  _357
REMARK  150  A    between atoms: _360  and  _362
REMARK  151  A    between atoms: _362  and  _363
REMARK  152  A    between atoms: _362  and  _365
REMARK  153  A    between atoms: _365  and  _366
REMARK  154  A    between atoms: _371  and  _373
REMARK  155  A    between atoms: _373  and  _374
REMARK  156  A    between atoms: _373  and  _376
REMARK  157  A    between atoms: _376  and  _377
REMARK  158  A    between atoms: _379  and  _381
REMARK  159  A    between atoms: _381  and  _382
REMARK  160  A    between atoms: _381  and  _384
REMARK  161  A    between atoms: _384  and  _385
REMARK  162  A    between atoms: _385  and  _386
REMARK  163  A    between atoms: _386  and  _387
REMARK  164  A    between atoms: _387  and  _388
REMARK  165  A    between atoms: _392  and  _394
REMARK  166  A    between atoms: _394  and  _395
REMARK  167  A    between atoms: _394  and  _397
REMARK  168  A    between atoms: _397  and  _398
REMARK  169  A    between atoms: _398  and  _399
REMARK  170  A    between atoms: _404  and  _406
REMARK  171  A    between atoms: _406  and  _407
REMARK  172  A    between atoms: _406  and  _409
REMARK  173  A    between atoms: _412  and  _414
REMARK  174  A    between atoms: _414  and  _415
REMARK  175  A    between atoms: _414  and  _417
REMARK  176  A    between atoms: _417  and  _418
REMARK  177  A    between atoms: _424  and  _426
REMARK  178  A    between atoms: _426  and  _427
REMARK  179  A    between atoms: _430  and  _432
REMARK  180  A    between atoms: _432  and  _433
REMARK  181  A    between atoms: _432  and  _435
REMARK  182  A    between atoms: _435  and  _436
REMARK  183  A    between atoms: _439  and  _441
REMARK  184  A    between atoms: _441  and  _442
REMARK  185  A    between atoms: _441  and  _444
REMARK  186  A    between atoms: _444  and  _445
REMARK  187  A    between atoms: _445  and  _446
REMARK  188  A    between atoms: _446  and  _447
REMARK  189  A    between atoms: _456  and  _458
REMARK  190  A    between atoms: _458  and  _459
REMARK  191  A    between atoms: _458  and  _461
REMARK  192  A    between atoms: _461  and  _462
REMARK  193  A    between atoms: _468  and  _470
REMARK  194  A    between atoms: _470  and  _471
REMARK  195  A    between atoms: _470  and  _473
REMARK  196  A    between atoms: _473  and  _474
REMARK  197  A    between atoms: _477  and  _479
REMARK  198  A    between atoms: _479  and  _480
REMARK  199  A    between atoms: _479  and  _482
REMARK  200  A    between atoms: _482  and  _483
REMARK  201  A    between atoms: _488  and  _489
REMARK  202  A    between atoms: _491  and  _493
REMARK  203  A    between atoms: _493  and  _494
REMARK  204  A    between atoms: _497  and  _499
REMARK  205  A    between atoms: _499  and  _500
REMARK  206  A    between atoms: _499  and  _502
REMARK  207  A    between atoms: _502  and  _503
REMARK  208  A    between atoms: _503  and  _504
REMARK  209  A    between atoms: _506  and  _508
REMARK  210  A    between atoms: _508  and  _509
REMARK  211  A    between atoms: _508  and  _511
REMARK  212  A    between atoms: _511  and  _512
REMARK  213  A    between atoms: _517  and  _519
REMARK  214  A    between atoms: _519  and  _520
REMARK  215  A    between atoms: _519  and  _522
REMARK  216  A    between atoms: _522  and  _523
REMARK  217  A    between atoms: _523  and  _524
REMARK  218  A    between atoms: _524  and  _525
REMARK  219  A    between atoms: _534  and  _536
REMARK  220  A    between atoms: _536  and  _537
REMARK  221  A    between atoms: _536  and  _539
REMARK  222  A    between atoms: _539  and  _540
REMARK  223  A    between atoms: _540  and  _541
REMARK  224  A    between atoms: _544  and  _546
REMARK  225  A    between atoms: _546  and  _547
REMARK  226  A    between atoms: _546  and  _549
REMARK  227  A    between atoms: _552  and  _554
REMARK  228  A    between atoms: _554  and  _555
REMARK  229  A    between atoms: _554  and  _557
REMARK  230  A    between atoms: _557  and  _558
REMARK                            x       y       z     vdW  Elec       q    Type
REMARK                         _______ _______ _______ _____ _____    ______ ____
ROOT
ATOM      1  O   HOH     1      14.371   5.978  -5.720  0.00  0.00    +0.000 OA
ENDROOT
TORSDOF 0
REMARK  Name = ../refined-set-2016/3hb4/3hb4_pocket.pdb
REMARK  230 active torsions:
REMARK  status: ('A' for Active; 'I' for Inactive)
REMARK    1  A    between atoms: _1  and  _3
REMARK    2  A    between atoms: _3  and  _4
REMARK    3  A    between atoms: _3  and  _6
REMARK    4  A    between atoms: _6  and  _7
REMARK    5  A    between atoms: _9  and  _11
REMARK    6  A    between atoms: _11  and  _12
REMARK    7  A    between atoms: _11  and  _14
REMARK    8  A    between atoms: _14  and  _15
REMARK    9  A    between atoms: _18  and  _20
REMARK   10  A    between atoms: _20  and  _21
REMARK   11  A    between atoms: _20  and  _23
REMARK   12  A    between atoms: _23  and  _24
REMARK   13  A    between atoms: _29  and  _31
REMARK   14  A    between atoms: _31  and  _32
REMARK   15  A    between atoms: _35  and  _37
REMARK   16  A    between atoms: _37  and  _38
REMARK   17  A    between atoms: _40  and  _42
REMARK   18  A    between atoms: _42  and  _43
REMARK   19  A    between atoms: _42  and  _45
REMARK   20  A    between atoms: _45  and  _46
REMARK   21  A    between atoms: _49  and  _51
REMARK   22  A    between atoms: _51  and  _52
REMARK   23  A    between atoms: _54  and  _56
REMARK   24  A    between atoms: _56  and  _57
REMARK   25  A    between atoms: _56  and  _59
REMARK   26  A    between atoms: _59  and  _60
REMARK   27  A    between atoms: _63  and  _65
REMARK   28  A    between atoms: _65  and  _66
REMARK   29  A    between atoms: _65  and  _68
REMARK   30  A    between atoms: _68  and  _69
REMARK   31  A    between atoms: _72  and  _74
REMARK   32  A    between atoms: _74  and  _75
REMARK   33  A    between atoms: _77  and  _79
REMARK   34  A    between atoms: _79  and  _80
REMARK   35  A    between atoms: _79  and  _82
REMARK   36  A    between atoms: _82  and  _83
REMARK   37  A    between atoms: _88  and  _90
REMARK   38  A    between atoms: _90  and  _91
REMARK   39  A    between atoms: _90  and  _93
REMARK   40  A    between atoms: _93  and  _94
REMARK   41  A    between atoms: _97  and  _99
REMARK   42  A    between atoms: _99  and  _100
REMARK   43  A    between atoms: _102  and  _104
REMARK   44  A    between atoms: _104  and  _105
REMARK   45  A    between atoms: _104  and  _107
REMARK   46  A    between atoms: _107  and  _108
REMARK   47  A    between atoms: _110  and  _112
REMARK   48  A    between atoms: _112  and  _113
REMARK   49  A    between atoms: _112  and  _115
REMARK   50  A    between atoms: _118  and  _120
REMARK   51  A    between atoms: _120  and  _121
REMARK   52  A    between atoms: _123  and  _125
REMARK   53  A    between atoms: _125  and  _126
REMARK   54  A    between atoms: _128  and  _130
REMARK   55  A    between atoms: _130  and  _131
REMARK   56  A    between atoms: _130  and  _133
REMARK   57  A    between atoms: _133  and  _134
REMARK   58  A    between atoms: _137  and  _139
REMARK   59  A    between atoms: _139  and  _140
REMARK   60  A    between atoms: _139  and  _142
REMARK   61  A    between atoms: _142  and  _143
REMARK   62  A    between atoms: _143  and  _144
REMARK   63  A    between atoms: _146  and  _148
REMARK   64  A    between atoms: _148  and  _149
REMARK   65  A    between atoms: _151  and  _153
REMARK   66  A    between atoms: _153  and  _154
REMARK   67  A    between atoms: _153  and  _156
REMARK   68  A    between atoms: _156  and  _157
REMARK   69  A    between atoms: _161  and  _162
REMARK   70  A    between atoms: _167  and  _169
REMARK   71  A    between atoms: _169  and  _170
REMARK   72  A    between atoms: _169  and  _172
REMARK   73  A    between atoms: _172  and  _173
REMARK   74  A    between atoms: _179  and  _181
REMARK   75  A    between atoms: _181  and  _182
REMARK   76  A    between atoms: _181  and  _184
REMARK   77  A    between atoms: _184  and  _185
REMARK   78  A    between atoms: _190  and  _192
REMARK   79  A    between atoms: _192  and  _193
REMARK   80  A    between atoms: _192  and  _195
REMARK   81  A    between atoms: _195  and  _196
REMARK   82  A    between atoms: _201  and  _202
REMARK   83  A    between atoms: _204  and  _206
REMARK   84  A    between atoms: _206  and  _207
REMARK   85  A    between atoms: _206  and  _209
REMARK   86  A    between atoms: _211  and  _213
REMARK   87  A    between atoms: _213  and  _214
REMARK   88  A    between atoms: _213  and  _216
REMARK   89  A    between atoms: _216  and  _217
REMARK   90  A    between atoms: _217  and  _218
REMARK   91  A    between atoms: _218  and  _219
REMARK   92  A    between atoms: _219  and  _220
REMARK   93  A    between atoms: _224  and  _226
REMARK   94  A    between atoms: _226  and  _227
REMARK   95  A    between atoms: _226  and  _229
REMARK   96  A    between atoms: _229  and  _230
REMARK   97  A    between atoms: _230  and  _231
REMARK   98  A    between atoms: _234  and  _236
REMARK   99  A    between atoms: _236  and  _237
REMARK  100  A    between atoms: _236  and  _239
REMARK  101  A    between atoms: _241  and  _243
REMARK  102  A    between atoms: _243  and  _244
REMARK  103  A    between atoms: _247  and  _248
REMARK  104  A    between atoms: _253  and  _255
REMARK  105  A    between atoms: _255  and  _256
REMARK  106  A    between atoms: _255  and  _258
REMARK  107  A    between atoms: _261  and  _263
REMARK  108  A    between atoms: _263  and  _264
REMARK  109  A    between atoms: _263  and  _266
REMARK  110  A    between atoms: _266  and  _267
REMARK  111  A    between atoms: _270  and  _272
REMARK  112  A    between atoms: _272  and  _273
REMARK  113  A    between atoms: _276  and  _278
REMARK  114  A    between atoms: _278  and  _279
REMARK  115  A    between atoms: _278  and  _281
REMARK  116  A    between atoms: _281  and  _282
REMARK  117  A    between atoms: _288  and  _290
REMARK  118  A    between atoms: _290  and  _291
REMARK  119  A    between atoms: _290  and  _293
REMARK  120  A    between atoms: _293  and  _294
REMARK  121  A    between atoms: _294  and  _295
REMARK  122  A    between atoms: _297  and  _299
REMARK  123  A    between atoms: _299  and  _300
REMARK  124  A    between atoms: _299  and  _302
REMARK  125  A    between atoms: _302  and  _303
REMARK  126  A    between atoms: _303  and  _304
REMARK  127  A    between atoms: _307  and  _309
REMARK  128  A    between atoms: _309  and  _310
REMARK  129  A    between atoms: _309  and  _312
REMARK  130  A    between atoms: _312  and  _313
REMARK  131  A    between atoms: _313  and  _314
REMARK  132  A    between atoms: _314  and  _315
REMARK  133  A    between atoms: _315  and  _316
REMARK  134  A    between atoms: _320  and  _322
REMARK  135  A    between atoms: _322  and  _323
REMARK  136  A    between atoms: _322  and  _325
REMARK  137  A    between atoms: _328  and  _330
REMARK  138  A    between atoms: _330  and  _331
REMARK  139  A    between atoms: _330  and  _333
REMARK  140  A    between atoms: _333  and  _334
REMARK  141  A    between atoms: _337  and  _339
REMARK  142  A    between atoms: _339  and  _340
REMARK  143  A    between atoms: _339  and  _342
REMARK  144  A    between atoms: _342  and  _343
REMARK  145  A    between atoms: _348  and  _349
REMARK  146  A    between atoms: _351  and  _353
REMARK  147  A    between atoms: _353  and  _354
REMARK  148  A    between atoms: _353  and  _356
REMARK  149  A    between atoms: _356  and  _357
REMARK  150  A    between atoms: _360  and  _362
REMARK  151  A    between atoms: _362  and  _363
REMARK  152  A    between atoms: _362  and  _365
REMARK  153  A    between atoms: _365  and  _366
REMARK  154  A    between atoms: _371  and  _373
REMARK  155  A    between atoms: _373  and  _374
REMARK  156  A    between atoms: _373  and  _376
REMARK  157  A    between atoms: _376  and  _377
REMARK  158  A    between atoms: _379  and  _381
REMARK  159  A    between atoms: _381  and  _382
REMARK  160  A    between atoms: _381  and  _384
REMARK  161  A    between atoms: _384  and  _385
REMARK  162  A    between atoms: _385  and  _386
REMARK  163  A    between atoms: _386  and  _387
REMARK  164  A    between atoms: _387  and  _388
REMARK  165  A    between atoms: _392  and  _394
REMARK  166  A    between atoms: _394  and  _395
REMARK  167  A    between atoms: _394  and  _397
REMARK  168  A    between atoms: _397  and  _398
REMARK  169  A    between atoms: _398  and  _399
REMARK  170  A    between atoms: _404  and  _406
REMARK  171  A    between atoms: _406  and  _407
REMARK  172  A    between atoms: _406  and  _409
REMARK  173  A    between atoms: _412  and  _414
REMARK  174  A    between atoms: _414  and  _415
REMARK  175  A    between atoms: _414  and  _417
REMARK  176  A    between atoms: _417  and  _418
REMARK  177  A    between atoms: _424  and  _426
REMARK  178  A    between atoms: _426  and  _427
REMARK  179  A    between atoms: _430  and  _432
REMARK  180  A    between atoms: _432  and  _433
REMARK  181  A    between atoms: _432  and  _435
REMARK  182  A    between atoms: _435  and  _436
REMARK  183  A    between atoms: _439  and  _441
REMARK  184  A    between atoms: _441  and  _442
REMARK  185  A    between atoms: _441  and  _444
REMARK  186  A    between atoms: _444  and  _445
REMARK  187  A    between atoms: _445  and  _446
REMARK  188  A    between atoms: _446  and  _447
REMARK  189  A    between atoms: _456  and  _458
REMARK  190  A    between atoms: _458  and  _459
REMARK  191  A    between atoms: _458  and  _461
REMARK  192  A    between atoms: _461  and  _462
REMARK  193  A    between atoms: _468  and  _470
REMARK  194  A    between atoms: _470  and  _471
REMARK  195  A    between atoms: _470  and  _473
REMARK  196  A    between atoms: _473  and  _474
REMARK  197  A    between atoms: _477  and  _479
REMARK  198  A    between atoms: _479  and  _480
REMARK  199  A    between atoms: _479  and  _482
REMARK  200  A    between atoms: _482  and  _483
REMARK  201  A    between atoms: _488  and  _489
REMARK  202  A    between atoms: _491  and  _493
REMARK  203  A    between atoms: _493  and  _494
REMARK  204  A    between atoms: _497  and  _499
REMARK  205  A    between atoms: _499  and  _500
REMARK  206  A    between atoms: _499  and  _502
REMARK  207  A    between atoms: _502  and  _503
REMARK  208  A    between atoms: _503  and  _504
REMARK  209  A    between atoms: _506  and  _508
REMARK  210  A    between atoms: _508  and  _509
REMARK  211  A    between atoms: _508  and  _511
REMARK  212  A    between atoms: _511  and  _512
REMARK  213  A    between atoms: _517  and  _519
REMARK  214  A    between atoms: _519  and  _520
REMARK  215  A    between atoms: _519  and  _522
REMARK  216  A    between atoms: _522  and  _523
REMARK  217  A    between atoms: _523  and  _524
REMARK  218  A    between atoms: _524  and  _525
REMARK  219  A    between atoms: _534  and  _536
REMARK  220  A    between atoms: _536  and  _537
REMARK  221  A    between atoms: _536  and  _539
REMARK  222  A    between atoms: _539  and  _540
REMARK  223  A    between atoms: _540  and  _541
REMARK  224  A    between atoms: _544  and  _546
REMARK  225  A    between atoms: _546  and  _547
REMARK  226  A    between atoms: _546  and  _549
REMARK  227  A    between atoms: _552  and  _554
REMARK  228  A    between atoms: _554  and  _555
REMARK  229  A    between atoms: _554  and  _557
REMARK  230  A    between atoms: _557  and  _558
REMARK                            x       y       z     vdW  Elec       q    Type
REMARK                         _______ _______ _______ _____ _____    ______ ____
ROOT
ATOM      1  O   HOH     1      13.947   4.519  -3.176  0.00  0.00    +0.000 OA
ENDROOT
TORSDOF 0
REMARK  Name = ../refined-set-2016/3hb4/3hb4_pocket.pdb
REMARK  230 active torsions:
REMARK  status: ('A' for Active; 'I' for Inactive)
REMARK    1  A    between atoms: _1  and  _3
REMARK    2  A    between atoms: _3  and  _4
REMARK    3  A    between atoms: _3  and  _6
REMARK    4  A    between atoms: _6  and  _7
REMARK    5  A    between atoms: _9  and  _11
REMARK    6  A    between atoms: _11  and  _12
REMARK    7  A    between atoms: _11  and  _14
REMARK    8  A    between atoms: _14  and  _15
REMARK    9  A    between atoms: _18  and  _20
REMARK   10  A    between atoms: _20  and  _21
REMARK   11  A    between atoms: _20  and  _23
REMARK   12  A    between atoms: _23  and  _24
REMARK   13  A    between atoms: _29  and  _31
REMARK   14  A    between atoms: _31  and  _32
REMARK   15  A    between atoms: _35  and  _37
REMARK   16  A    between atoms: _37  and  _38
REMARK   17  A    between atoms: _40  and  _42
REMARK   18  A    between atoms: _42  and  _43
REMARK   19  A    between atoms: _42  and  _45
REMARK   20  A    between atoms: _45  and  _46
REMARK   21  A    between atoms: _49  and  _51
REMARK   22  A    between atoms: _51  and  _52
REMARK   23  A    between atoms: _54  and  _56
REMARK   24  A    between atoms: _56  and  _57
REMARK   25  A    between atoms: _56  and  _59
REMARK   26  A    between atoms: _59  and  _60
REMARK   27  A    between atoms: _63  and  _65
REMARK   28  A    between atoms: _65  and  _66
REMARK   29  A    between atoms: _65  and  _68
REMARK   30  A    between atoms: _68  and  _69
REMARK   31  A    between atoms: _72  and  _74
REMARK   32  A    between atoms: _74  and  _75
REMARK   33  A    between atoms: _77  and  _79
REMARK   34  A    between atoms: _79  and  _80
REMARK   35  A    between atoms: _79  and  _82
REMARK   36  A    between atoms: _82  and  _83
REMARK   37  A    between atoms: _88  and  _90
REMARK   38  A    between atoms: _90  and  _91
REMARK   39  A    between atoms: _90  and  _93
REMARK   40  A    between atoms: _93  and  _94
REMARK   41  A    between atoms: _97  and  _99
REMARK   42  A    between atoms: _99  and  _100
REMARK   43  A    between atoms: _102  and  _104
REMARK   44  A    between atoms: _104  and  _105
REMARK   45  A    between atoms: _104  and  _107
REMARK   46  A    between atoms: _107  and  _108
REMARK   47  A    between atoms: _110  and  _112
REMARK   48  A    between atoms: _112  and  _113
REMARK   49  A    between atoms: _112  and  _115
REMARK   50  A    between atoms: _118  and  _120
REMARK   51  A    between atoms: _120  and  _121
REMARK   52  A    between atoms: _123  and  _125
REMARK   53  A    between atoms: _125  and  _126
REMARK   54  A    between atoms: _128  and  _130
REMARK   55  A    between atoms: _130  and  _131
REMARK   56  A    between atoms: _130  and  _133
REMARK   57  A    between atoms: _133  and  _134
REMARK   58  A    between atoms: _137  and  _139
REMARK   59  A    between atoms: _139  and  _140
REMARK   60  A    between atoms: _139  and  _142
REMARK   61  A    between atoms: _142  and  _143
REMARK   62  A    between atoms: _143  and  _144
REMARK   63  A    between atoms: _146  and  _148
REMARK   64  A    between atoms: _148  and  _149
REMARK   65  A    between atoms: _151  and  _153
REMARK   66  A    between atoms: _153  and  _154
REMARK   67  A    between atoms: _153  and  _156
REMARK   68  A    between atoms: _156  and  _157
REMARK   69  A    between atoms: _161  and  _162
REMARK   70  A    between atoms: _167  and  _169
REMARK   71  A    between atoms: _169  and  _170
REMARK   72  A    between atoms: _169  and  _172
REMARK   73  A    between atoms: _172  and  _173
REMARK   74  A    between atoms: _179  and  _181
REMARK   75  A    between atoms: _181  and  _182
REMARK   76  A    between atoms: _181  and  _184
REMARK   77  A    between atoms: _184  and  _185
REMARK   78  A    between atoms: _190  and  _192
REMARK   79  A    between atoms: _192  and  _193
REMARK   80  A    between atoms: _192  and  _195
REMARK   81  A    between atoms: _195  and  _196
REMARK   82  A    between atoms: _201  and  _202
REMARK   83  A    between atoms: _204  and  _206
REMARK   84  A    between atoms: _206  and  _207
REMARK   85  A    between atoms: _206  and  _209
REMARK   86  A    between atoms: _211  and  _213
REMARK   87  A    between atoms: _213  and  _214
REMARK   88  A    between atoms: _213  and  _216
REMARK   89  A    between atoms: _216  and  _217
REMARK   90  A    between atoms: _217  and  _218
REMARK   91  A    between atoms: _218  and  _219
REMARK   92  A    between atoms: _219  and  _220
REMARK   93  A    between atoms: _224  and  _226
REMARK   94  A    between atoms: _226  and  _227
REMARK   95  A    between atoms: _226  and  _229
REMARK   96  A    between atoms: _229  and  _230
REMARK   97  A    between atoms: _230  and  _231
REMARK   98  A    between atoms: _234  and  _236
REMARK   99  A    between atoms: _236  and  _237
REMARK  100  A    between atoms: _236  and  _239
REMARK  101  A    between atoms: _241  and  _243
REMARK  102  A    between atoms: _243  and  _244
REMARK  103  A    between atoms: _247  and  _248
REMARK  104  A    between atoms: _253  and  _255
REMARK  105  A    between atoms: _255  and  _256
REMARK  106  A    between atoms: _255  and  _258
REMARK  107  A    between atoms: _261  and  _263
REMARK  108  A    between atoms: _263  and  _264
REMARK  109  A    between atoms: _263  and  _266
REMARK  110  A    between atoms: _266  and  _267
REMARK  111  A    between atoms: _270  and  _272
REMARK  112  A    between atoms: _272  and  _273
REMARK  113  A    between atoms: _276  and  _278
REMARK  114  A    between atoms: _278  and  _279
REMARK  115  A    between atoms: _278  and  _281
REMARK  116  A    between atoms: _281  and  _282
REMARK  117  A    between atoms: _288  and  _290
REMARK  118  A    between atoms: _290  and  _291
REMARK  119  A    between atoms: _290  and  _293
REMARK  120  A    between atoms: _293  and  _294
REMARK  121  A    between atoms: _294  and  _295
REMARK  122  A    between atoms: _297  and  _299
REMARK  123  A    between atoms: _299  and  _300
REMARK  124  A    between atoms: _299  and  _302
REMARK  125  A    between atoms: _302  and  _303
REMARK  126  A    between atoms: _303  and  _304
REMARK  127  A    between atoms: _307  and  _309
REMARK  128  A    between atoms: _309  and  _310
REMARK  129  A    between atoms: _309  and  _312
REMARK  130  A    between atoms: _312  and  _313
REMARK  131  A    between atoms: _313  and  _314
REMARK  132  A    between atoms: _314  and  _315
REMARK  133  A    between atoms: _315  and  _316
REMARK  134  A    between atoms: _320  and  _322
REMARK  135  A    between atoms: _322  and  _323
REMARK  136  A    between atoms: _322  and  _325
REMARK  137  A    between atoms: _328  and  _330
REMARK  138  A    between atoms: _330  and  _331
REMARK  139  A    between atoms: _330  and  _333
REMARK  140  A    between atoms: _333  and  _334
REMARK  141  A    between atoms: _337  and  _339
REMARK  142  A    between atoms: _339  and  _340
REMARK  143  A    between atoms: _339  and  _342
REMARK  144  A    between atoms: _342  and  _343
REMARK  145  A    between atoms: _348  and  _349
REMARK  146  A    between atoms: _351  and  _353
REMARK  147  A    between atoms: _353  and  _354
REMARK  148  A    between atoms: _353  and  _356
REMARK  149  A    between atoms: _356  and  _357
REMARK  150  A    between atoms: _360  and  _362
REMARK  151  A    between atoms: _362  and  _363
REMARK  152  A    between atoms: _362  and  _365
REMARK  153  A    between atoms: _365  and  _366
REMARK  154  A    between atoms: _371  and  _373
REMARK  155  A    between atoms: _373  and  _374
REMARK  156  A    between atoms: _373  and  _376
REMARK  157  A    between atoms: _376  and  _377
REMARK  158  A    between atoms: _379  and  _381
REMARK  159  A    between atoms: _381  and  _382
REMARK  160  A    between atoms: _381  and  _384
REMARK  161  A    between atoms: _384  and  _385
REMARK  162  A    between atoms: _385  and  _386
REMARK  163  A    between atoms: _386  and  _387
REMARK  164  A    between atoms: _387  and  _388
REMARK  165  A    between atoms: _392  and  _394
REMARK  166  A    between atoms: _394  and  _395
REMARK  167  A    between atoms: _394  and  _397
REMARK  168  A    between atoms: _397  and  _398
REMARK  169  A    between atoms: _398  and  _399
REMARK  170  A    between atoms: _404  and  _406
REMARK  171  A    between atoms: _406  and  _407
REMARK  172  A    between atoms: _406  and  _409
REMARK  173  A    between atoms: _412  and  _414
REMARK  174  A    between atoms: _414  and  _415
REMARK  175  A    between atoms: _414  and  _417
REMARK  176  A    between atoms: _417  and  _418
REMARK  177  A    between atoms: _424  and  _426
REMARK  178  A    between atoms: _426  and  _427
REMARK  179  A    between atoms: _430  and  _432
REMARK  180  A    between atoms: _432  and  _433
REMARK  181  A    between atoms: _432  and  _435
REMARK  182  A    between atoms: _435  and  _436
REMARK  183  A    between atoms: _439  and  _441
REMARK  184  A    between atoms: _441  and  _442
REMARK  185  A    between atoms: _441  and  _444
REMARK  186  A    between atoms: _444  and  _445
REMARK  187  A    between atoms: _445  and  _446
REMARK  188  A    between atoms: _446  and  _447
REMARK  189  A    between atoms: _456  and  _458
REMARK  190  A    between atoms: _458  and  _459
REMARK  191  A    between atoms: _458  and  _461
REMARK  192  A    between atoms: _461  and  _462
REMARK  193  A    between atoms: _468  and  _470
REMARK  194  A    between atoms: _470  and  _471
REMARK  195  A    between atoms: _470  and  _473
REMARK  196  A    between atoms: _473  and  _474
REMARK  197  A    between atoms: _477  and  _479
REMARK  198  A    between atoms: _479  and  _480
REMARK  199  A    between atoms: _479  and  _482
REMARK  200  A    between atoms: _482  and  _483
REMARK  201  A    between atoms: _488  and  _489
REMARK  202  A    between atoms: _491  and  _493
REMARK  203  A    between atoms: _493  and  _494
REMARK  204  A    between atoms: _497  and  _499
REMARK  205  A    between atoms: _499  and  _500
REMARK  206  A    between atoms: _499  and  _502
REMARK  207  A    between atoms: _502  and  _503
REMARK  208  A    between atoms: _503  and  _504
REMARK  209  A    between atoms: _506  and  _508
REMARK  210  A    between atoms: _508  and  _509
REMARK  211  A    between atoms: _508  and  _511
REMARK  212  A    between atoms: _511  and  _512
REMARK  213  A    between atoms: _517  and  _519
REMARK  214  A    between atoms: _519  and  _520
REMARK  215  A    between atoms: _519  and  _522
REMARK  216  A    between atoms: _522  and  _523
REMARK  217  A    between atoms: _523  and  _524
REMARK  218  A    between atoms: _524  and  _525
REMARK  219  A    between atoms: _534  and  _536
REMARK  220  A    between atoms: _536  and  _537
REMARK  221  A    between atoms: _536  and  _539
REMARK  222  A    between atoms: _539  and  _540
REMARK  223  A    between atoms: _540  and  _541
REMARK  224  A    between atoms: _544  and  _546
REMARK  225  A    between atoms: _546  and  _547
REMARK  226  A    between atoms: _546  and  _549
REMARK  227  A    between atoms: _552  and  _554
REMARK  228  A    between atoms: _554  and  _555
REMARK  229  A    between atoms: _554  and  _557
REMARK  230  A    between atoms: _557  and  _558
REMARK                            x       y       z     vdW  Elec       q    Type
REMARK                         _______ _______ _______ _____ _____    ______ ____
ROOT
ATOM      1  O   HOH     1      19.515  -1.133  -1.392  0.00  0.00    +0.000 OA
ENDROOT
TORSDOF 0
REMARK  Name = ../refined-set-2016/3hb4/3hb4_pocket.pdb
REMARK  230 active torsions:
REMARK  status: ('A' for Active; 'I' for Inactive)
REMARK    1  A    between atoms: _1  and  _3
REMARK    2  A    between atoms: _3  and  _4
REMARK    3  A    between atoms: _3  and  _6
REMARK    4  A    between atoms: _6  and  _7
REMARK    5  A    between atoms: _9  and  _11
REMARK    6  A    between atoms: _11  and  _12
REMARK    7  A    between atoms: _11  and  _14
REMARK    8  A    between atoms: _14  and  _15
REMARK    9  A    between atoms: _18  and  _20
REMARK   10  A    between atoms: _20  and  _21
REMARK   11  A    between atoms: _20  and  _23
REMARK   12  A    between atoms: _23  and  _24
REMARK   13  A    between atoms: _29  and  _31
REMARK   14  A    between atoms: _31  and  _32
REMARK   15  A    between atoms: _35  and  _37
REMARK   16  A    between atoms: _37  and  _38
REMARK   17  A    between atoms: _40  and  _42
REMARK   18  A    between atoms: _42  and  _43
REMARK   19  A    between atoms: _42  and  _45
REMARK   20  A    between atoms: _45  and  _46
REMARK   21  A    between atoms: _49  and  _51
REMARK   22  A    between atoms: _51  and  _52
REMARK   23  A    between atoms: _54  and  _56
REMARK   24  A    between atoms: _56  and  _57
REMARK   25  A    between atoms: _56  and  _59
REMARK   26  A    between atoms: _59  and  _60
REMARK   27  A    between atoms: _63  and  _65
REMARK   28  A    between atoms: _65  and  _66
REMARK   29  A    between atoms: _65  and  _68
REMARK   30  A    between atoms: _68  and  _69
REMARK   31  A    between atoms: _72  and  _74
REMARK   32  A    between atoms: _74  and  _75
REMARK   33  A    between atoms: _77  and  _79
REMARK   34  A    between atoms: _79  and  _80
REMARK   35  A    between atoms: _79  and  _82
REMARK   36  A    between atoms: _82  and  _83
REMARK   37  A    between atoms: _88  and  _90
REMARK   38  A    between atoms: _90  and  _91
REMARK   39  A    between atoms: _90  and  _93
REMARK   40  A    between atoms: _93  and  _94
REMARK   41  A    between atoms: _97  and  _99
REMARK   42  A    between atoms: _99  and  _100
REMARK   43  A    between atoms: _102  and  _104
REMARK   44  A    between atoms: _104  and  _105
REMARK   45  A    between atoms: _104  and  _107
REMARK   46  A    between atoms: _107  and  _108
REMARK   47  A    between atoms: _110  and  _112
REMARK   48  A    between atoms: _112  and  _113
REMARK   49  A    between atoms: _112  and  _115
REMARK   50  A    between atoms: _118  and  _120
REMARK   51  A    between atoms: _120  and  _121
REMARK   52  A    between atoms: _123  and  _125
REMARK   53  A    between atoms: _125  and  _126
REMARK   54  A    between atoms: _128  and  _130
REMARK   55  A    between atoms: _130  and  _131
REMARK   56  A    between atoms: _130  and  _133
REMARK   57  A    between atoms: _133  and  _134
REMARK   58  A    between atoms: _137  and  _139
REMARK   59  A    between atoms: _139  and  _140
REMARK   60  A    between atoms: _139  and  _142
REMARK   61  A    between atoms: _142  and  _143
REMARK   62  A    between atoms: _143  and  _144
REMARK   63  A    between atoms: _146  and  _148
REMARK   64  A    between atoms: _148  and  _149
REMARK   65  A    between atoms: _151  and  _153
REMARK   66  A    between atoms: _153  and  _154
REMARK   67  A    between atoms: _153  and  _156
REMARK   68  A    between atoms: _156  and  _157
REMARK   69  A    between atoms: _161  and  _162
REMARK   70  A    between atoms: _167  and  _169
REMARK   71  A    between atoms: _169  and  _170
REMARK   72  A    between atoms: _169  and  _172
REMARK   73  A    between atoms: _172  and  _173
REMARK   74  A    between atoms: _179  and  _181
REMARK   75  A    between atoms: _181  and  _182
REMARK   76  A    between atoms: _181  and  _184
REMARK   77  A    between atoms: _184  and  _185
REMARK   78  A    between atoms: _190  and  _192
REMARK   79  A    between atoms: _192  and  _193
REMARK   80  A    between atoms: _192  and  _195
REMARK   81  A    between atoms: _195  and  _196
REMARK   82  A    between atoms: _201  and  _202
REMARK   83  A    between atoms: _204  and  _206
REMARK   84  A    between atoms: _206  and  _207
REMARK   85  A    between atoms: _206  and  _209
REMARK   86  A    between atoms: _211  and  _213
REMARK   87  A    between atoms: _213  and  _214
REMARK   88  A    between atoms: _213  and  _216
REMARK   89  A    between atoms: _216  and  _217
REMARK   90  A    between atoms: _217  and  _218
REMARK   91  A    between atoms: _218  and  _219
REMARK   92  A    between atoms: _219  and  _220
REMARK   93  A    between atoms: _224  and  _226
REMARK   94  A    between atoms: _226  and  _227
REMARK   95  A    between atoms: _226  and  _229
REMARK   96  A    between atoms: _229  and  _230
REMARK   97  A    between atoms: _230  and  _231
REMARK   98  A    between atoms: _234  and  _236
REMARK   99  A    between atoms: _236  and  _237
REMARK  100  A    between atoms: _236  and  _239
REMARK  101  A    between atoms: _241  and  _243
REMARK  102  A    between atoms: _243  and  _244
REMARK  103  A    between atoms: _247  and  _248
REMARK  104  A    between atoms: _253  and  _255
REMARK  105  A    between atoms: _255  and  _256
REMARK  106  A    between atoms: _255  and  _258
REMARK  107  A    between atoms: _261  and  _263
REMARK  108  A    between atoms: _263  and  _264
REMARK  109  A    between atoms: _263  and  _266
REMARK  110  A    between atoms: _266  and  _267
REMARK  111  A    between atoms: _270  and  _272
REMARK  112  A    between atoms: _272  and  _273
REMARK  113  A    between atoms: _276  and  _278
REMARK  114  A    between atoms: _278  and  _279
REMARK  115  A    between atoms: _278  and  _281
REMARK  116  A    between atoms: _281  and  _282
REMARK  117  A    between atoms: _288  and  _290
REMARK  118  A    between atoms: _290  and  _291
REMARK  119  A    between atoms: _290  and  _293
REMARK  120  A    between atoms: _293  and  _294
REMARK  121  A    between atoms: _294  and  _295
REMARK  122  A    between atoms: _297  and  _299
REMARK  123  A    between atoms: _299  and  _300
REMARK  124  A    between atoms: _299  and  _302
REMARK  125  A    between atoms: _302  and  _303
REMARK  126  A    between atoms: _303  and  _304
REMARK  127  A    between atoms: _307  and  _309
REMARK  128  A    between atoms: _309  and  _310
REMARK  129  A    between atoms: _309  and  _312
REMARK  130  A    between atoms: _312  and  _313
REMARK  131  A    between atoms: _313  and  _314
REMARK  132  A    between atoms: _314  and  _315
REMARK  133  A    between atoms: _315  and  _316
REMARK  134  A    between atoms: _320  and  _322
REMARK  135  A    between atoms: _322  and  _323
REMARK  136  A    between atoms: _322  and  _325
REMARK  137  A    between atoms: _328  and  _330
REMARK  138  A    between atoms: _330  and  _331
REMARK  139  A    between atoms: _330  and  _333
REMARK  140  A    between atoms: _333  and  _334
REMARK  141  A    between atoms: _337  and  _339
REMARK  142  A    between atoms: _339  and  _340
REMARK  143  A    between atoms: _339  and  _342
REMARK  144  A    between atoms: _342  and  _343
REMARK  145  A    between atoms: _348  and  _349
REMARK  146  A    between atoms: _351  and  _353
REMARK  147  A    between atoms: _353  and  _354
REMARK  148  A    between atoms: _353  and  _356
REMARK  149  A    between atoms: _356  and  _357
REMARK  150  A    between atoms: _360  and  _362
REMARK  151  A    between atoms: _362  and  _363
REMARK  152  A    between atoms: _362  and  _365
REMARK  153  A    between atoms: _365  and  _366
REMARK  154  A    between atoms: _371  and  _373
REMARK  155  A    between atoms: _373  and  _374
REMARK  156  A    between atoms: _373  and  _376
REMARK  157  A    between atoms: _376  and  _377
REMARK  158  A    between atoms: _379  and  _381
REMARK  159  A    between atoms: _381  and  _382
REMARK  160  A    between atoms: _381  and  _384
REMARK  161  A    between atoms: _384  and  _385
REMARK  162  A    between atoms: _385  and  _386
REMARK  163  A    between atoms: _386  and  _387
REMARK  164  A    between atoms: _387  and  _388
REMARK  165  A    between atoms: _392  and  _394
REMARK  166  A    between atoms: _394  and  _395
REMARK  167  A    between atoms: _394  and  _397
REMARK  168  A    between atoms: _397  and  _398
REMARK  169  A    between atoms: _398  and  _399
REMARK  170  A    between atoms: _404  and  _406
REMARK  171  A    between atoms: _406  and  _407
REMARK  172  A    between atoms: _406  and  _409
REMARK  173  A    between atoms: _412  and  _414
REMARK  174  A    between atoms: _414  and  _415
REMARK  175  A    between atoms: _414  and  _417
REMARK  176  A    between atoms: _417  and  _418
REMARK  177  A    between atoms: _424  and  _426
REMARK  178  A    between atoms: _426  and  _427
REMARK  179  A    between atoms: _430  and  _432
REMARK  180  A    between atoms: _432  and  _433
REMARK  181  A    between atoms: _432  and  _435
REMARK  182  A    between atoms: _435  and  _436
REMARK  183  A    between atoms: _439  and  _441
REMARK  184  A    between atoms: _441  and  _442
REMARK  185  A    between atoms: _441  and  _444
REMARK  186  A    between atoms: _444  and  _445
REMARK  187  A    between atoms: _445  and  _446
REMARK  188  A    between atoms: _446  and  _447
REMARK  189  A    between atoms: _456  and  _458
REMARK  190  A    between atoms: _458  and  _459
REMARK  191  A    between atoms: _458  and  _461
REMARK  192  A    between atoms: _461  and  _462
REMARK  193  A    between atoms: _468  and  _470
REMARK  194  A    between atoms: _470  and  _471
REMARK  195  A    between atoms: _470  and  _473
REMARK  196  A    between atoms: _473  and  _474
REMARK  197  A    between atoms: _477  and  _479
REMARK  198  A    between atoms: _479  and  _480
REMARK  199  A    between atoms: _479  and  _482
REMARK  200  A    between atoms: _482  and  _483
REMARK  201  A    between atoms: _488  and  _489
REMARK  202  A    between atoms: _491  and  _493
REMARK  203  A    between atoms: _493  and  _494
REMARK  204  A    between atoms: _497  and  _499
REMARK  205  A    between atoms: _499  and  _500
REMARK  206  A    between atoms: _499  and  _502
REMARK  207  A    between atoms: _502  and  _503
REMARK  208  A    between atoms: _503  and  _504
REMARK  209  A    between atoms: _506  and  _508
REMARK  210  A    between atoms: _508  and  _509
REMARK  211  A    between atoms: _508  and  _511
REMARK  212  A    between atoms: _511  and  _512
REMARK  213  A    between atoms: _517  and  _519
REMARK  214  A    between atoms: _519  and  _520
REMARK  215  A    between atoms: _519  and  _522
REMARK  216  A    between atoms: _522  and  _523
REMARK  217  A    between atoms: _523  and  _524
REMARK  218  A    between atoms: _524  and  _525
REMARK  219  A    between atoms: _534  and  _536
REMARK  220  A    between atoms: _536  and  _537
REMARK  221  A    between atoms: _536  and  _539
REMARK  222  A    between atoms: _539  and  _540
REMARK  223  A    between atoms: _540  and  _541
REMARK  224  A    between atoms: _544  and  _546
REMARK  225  A    between atoms: _546  and  _547
REMARK  226  A    between atoms: _546  and  _549
REMARK  227  A    between atoms: _552  and  _554
REMARK  228  A    between atoms: _554  and  _555
REMARK  229  A    between atoms: _554  and  _557
REMARK  230  A    between atoms: _557  and  _558
REMARK                            x       y       z     vdW  Elec       q    Type
REMARK                         _______ _______ _______ _____ _____    ______ ____
ROOT
ATOM      1  O   HOH     1      16.906  -4.098  -2.105  0.00  0.00    +0.000 OA
ENDROOT
TORSDOF 0
REMARK  Name = ../refined-set-2016/3hb4/3hb4_pocket.pdb
REMARK  230 active torsions:
REMARK  status: ('A' for Active; 'I' for Inactive)
REMARK    1  A    between atoms: _1  and  _3
REMARK    2  A    between atoms: _3  and  _4
REMARK    3  A    between atoms: _3  and  _6
REMARK    4  A    between atoms: _6  and  _7
REMARK    5  A    between atoms: _9  and  _11
REMARK    6  A    between atoms: _11  and  _12
REMARK    7  A    between atoms: _11  and  _14
REMARK    8  A    between atoms: _14  and  _15
REMARK    9  A    between atoms: _18  and  _20
REMARK   10  A    between atoms: _20  and  _21
REMARK   11  A    between atoms: _20  and  _23
REMARK   12  A    between atoms: _23  and  _24
REMARK   13  A    between atoms: _29  and  _31
REMARK   14  A    between atoms: _31  and  _32
REMARK   15  A    between atoms: _35  and  _37
REMARK   16  A    between atoms: _37  and  _38
REMARK   17  A    between atoms: _40  and  _42
REMARK   18  A    between atoms: _42  and  _43
REMARK   19  A    between atoms: _42  and  _45
REMARK   20  A    between atoms: _45  and  _46
REMARK   21  A    between atoms: _49  and  _51
REMARK   22  A    between atoms: _51  and  _52
REMARK   23  A    between atoms: _54  and  _56
REMARK   24  A    between atoms: _56  and  _57
REMARK   25  A    between atoms: _56  and  _59
REMARK   26  A    between atoms: _59  and  _60
REMARK   27  A    between atoms: _63  and  _65
REMARK   28  A    between atoms: _65  and  _66
REMARK   29  A    between atoms: _65  and  _68
REMARK   30  A    between atoms: _68  and  _69
REMARK   31  A    between atoms: _72  and  _74
REMARK   32  A    between atoms: _74  and  _75
REMARK   33  A    between atoms: _77  and  _79
REMARK   34  A    between atoms: _79  and  _80
REMARK   35  A    between atoms: _79  and  _82
REMARK   36  A    between atoms: _82  and  _83
REMARK   37  A    between atoms: _88  and  _90
REMARK   38  A    between atoms: _90  and  _91
REMARK   39  A    between atoms: _90  and  _93
REMARK   40  A    between atoms: _93  and  _94
REMARK   41  A    between atoms: _97  and  _99
REMARK   42  A    between atoms: _99  and  _100
REMARK   43  A    between atoms: _102  and  _104
REMARK   44  A    between atoms: _104  and  _105
REMARK   45  A    between atoms: _104  and  _107
REMARK   46  A    between atoms: _107  and  _108
REMARK   47  A    between atoms: _110  and  _112
REMARK   48  A    between atoms: _112  and  _113
REMARK   49  A    between atoms: _112  and  _115
REMARK   50  A    between atoms: _118  and  _120
REMARK   51  A    between atoms: _120  and  _121
REMARK   52  A    between atoms: _123  and  _125
REMARK   53  A    between atoms: _125  and  _126
REMARK   54  A    between atoms: _128  and  _130
REMARK   55  A    between atoms: _130  and  _131
REMARK   56  A    between atoms: _130  and  _133
REMARK   57  A    between atoms: _133  and  _134
REMARK   58  A    between atoms: _137  and  _139
REMARK   59  A    between atoms: _139  and  _140
REMARK   60  A    between atoms: _139  and  _142
REMARK   61  A    between atoms: _142  and  _143
REMARK   62  A    between atoms: _143  and  _144
REMARK   63  A    between atoms: _146  and  _148
REMARK   64  A    between atoms: _148  and  _149
REMARK   65  A    between atoms: _151  and  _153
REMARK   66  A    between atoms: _153  and  _154
REMARK   67  A    between atoms: _153  and  _156
REMARK   68  A    between atoms: _156  and  _157
REMARK   69  A    between atoms: _161  and  _162
REMARK   70  A    between atoms: _167  and  _169
REMARK   71  A    between atoms: _169  and  _170
REMARK   72  A    between atoms: _169  and  _172
REMARK   73  A    between atoms: _172  and  _173
REMARK   74  A    between atoms: _179  and  _181
REMARK   75  A    between atoms: _181  and  _182
REMARK   76  A    between atoms: _181  and  _184
REMARK   77  A    between atoms: _184  and  _185
REMARK   78  A    between atoms: _190  and  _192
REMARK   79  A    between atoms: _192  and  _193
REMARK   80  A    between atoms: _192  and  _195
REMARK   81  A    between atoms: _195  and  _196
REMARK   82  A    between atoms: _201  and  _202
REMARK   83  A    between atoms: _204  and  _206
REMARK   84  A    between atoms: _206  and  _207
REMARK   85  A    between atoms: _206  and  _209
REMARK   86  A    between atoms: _211  and  _213
REMARK   87  A    between atoms: _213  and  _214
REMARK   88  A    between atoms: _213  and  _216
REMARK   89  A    between atoms: _216  and  _217
REMARK   90  A    between atoms: _217  and  _218
REMARK   91  A    between atoms: _218  and  _219
REMARK   92  A    between atoms: _219  and  _220
REMARK   93  A    between atoms: _224  and  _226
REMARK   94  A    between atoms: _226  and  _227
REMARK   95  A    between atoms: _226  and  _229
REMARK   96  A    between atoms: _229  and  _230
REMARK   97  A    between atoms: _230  and  _231
REMARK   98  A    between atoms: _234  and  _236
REMARK   99  A    between atoms: _236  and  _237
REMARK  100  A    between atoms: _236  and  _239
REMARK  101  A    between atoms: _241  and  _243
REMARK  102  A    between atoms: _243  and  _244
REMARK  103  A    between atoms: _247  and  _248
REMARK  104  A    between atoms: _253  and  _255
REMARK  105  A    between atoms: _255  and  _256
REMARK  106  A    between atoms: _255  and  _258
REMARK  107  A    between atoms: _261  and  _263
REMARK  108  A    between atoms: _263  and  _264
REMARK  109  A    between atoms: _263  and  _266
REMARK  110  A    between atoms: _266  and  _267
REMARK  111  A    between atoms: _270  and  _272
REMARK  112  A    between atoms: _272  and  _273
REMARK  113  A    between atoms: _276  and  _278
REMARK  114  A    between atoms: _278  and  _279
REMARK  115  A    between atoms: _278  and  _281
REMARK  116  A    between atoms: _281  and  _282
REMARK  117  A    between atoms: _288  and  _290
REMARK  118  A    between atoms: _290  and  _291
REMARK  119  A    between atoms: _290  and  _293
REMARK  120  A    between atoms: _293  and  _294
REMARK  121  A    between atoms: _294  and  _295
REMARK  122  A    between atoms: _297  and  _299
REMARK  123  A    between atoms: _299  and  _300
REMARK  124  A    between atoms: _299  and  _302
REMARK  125  A    between atoms: _302  and  _303
REMARK  126  A    between atoms: _303  and  _304
REMARK  127  A    between atoms: _307  and  _309
REMARK  128  A    between atoms: _309  and  _310
REMARK  129  A    between atoms: _309  and  _312
REMARK  130  A    between atoms: _312  and  _313
REMARK  131  A    between atoms: _313  and  _314
REMARK  132  A    between atoms: _314  and  _315
REMARK  133  A    between atoms: _315  and  _316
REMARK  134  A    between atoms: _320  and  _322
REMARK  135  A    between atoms: _322  and  _323
REMARK  136  A    between atoms: _322  and  _325
REMARK  137  A    between atoms: _328  and  _330
REMARK  138  A    between atoms: _330  and  _331
REMARK  139  A    between atoms: _330  and  _333
REMARK  140  A    between atoms: _333  and  _334
REMARK  141  A    between atoms: _337  and  _339
REMARK  142  A    between atoms: _339  and  _340
REMARK  143  A    between atoms: _339  and  _342
REMARK  144  A    between atoms: _342  and  _343
REMARK  145  A    between atoms: _348  and  _349
REMARK  146  A    between atoms: _351  and  _353
REMARK  147  A    between atoms: _353  and  _354
REMARK  148  A    between atoms: _353  and  _356
REMARK  149  A    between atoms: _356  and  _357
REMARK  150  A    between atoms: _360  and  _362
REMARK  151  A    between atoms: _362  and  _363
REMARK  152  A    between atoms: _362  and  _365
REMARK  153  A    between atoms: _365  and  _366
REMARK  154  A    between atoms: _371  and  _373
REMARK  155  A    between atoms: _373  and  _374
REMARK  156  A    between atoms: _373  and  _376
REMARK  157  A    between atoms: _376  and  _377
REMARK  158  A    between atoms: _379  and  _381
REMARK  159  A    between atoms: _381  and  _382
REMARK  160  A    between atoms: _381  and  _384
REMARK  161  A    between atoms: _384  and  _385
REMARK  162  A    between atoms: _385  and  _386
REMARK  163  A    between atoms: _386  and  _387
REMARK  164  A    between atoms: _387  and  _388
REMARK  165  A    between atoms: _392  and  _394
REMARK  166  A    between atoms: _394  and  _395
REMARK  167  A    between atoms: _394  and  _397
REMARK  168  A    between atoms: _397  and  _398
REMARK  169  A    between atoms: _398  and  _399
REMARK  170  A    between atoms: _404  and  _406
REMARK  171  A    between atoms: _406  and  _407
REMARK  172  A    between atoms: _406  and  _409
REMARK  173  A    between atoms: _412  and  _414
REMARK  174  A    between atoms: _414  and  _415
REMARK  175  A    between atoms: _414  and  _417
REMARK  176  A    between atoms: _417  and  _418
REMARK  177  A    between atoms: _424  and  _426
REMARK  178  A    between atoms: _426  and  _427
REMARK  179  A    between atoms: _430  and  _432
REMARK  180  A    between atoms: _432  and  _433
REMARK  181  A    between atoms: _432  and  _435
REMARK  182  A    between atoms: _435  and  _436
REMARK  183  A    between atoms: _439  and  _441
REMARK  184  A    between atoms: _441  and  _442
REMARK  185  A    between atoms: _441  and  _444
REMARK  186  A    between atoms: _444  and  _445
REMARK  187  A    between atoms: _445  and  _446
REMARK  188  A    between atoms: _446  and  _447
REMARK  189  A    between atoms: _456  and  _458
REMARK  190  A    between atoms: _458  and  _459
REMARK  191  A    between atoms: _458  and  _461
REMARK  192  A    between atoms: _461  and  _462
REMARK  193  A    between atoms: _468  and  _470
REMARK  194  A    between atoms: _470  and  _471
REMARK  195  A    between atoms: _470  and  _473
REMARK  196  A    between atoms: _473  and  _474
REMARK  197  A    between atoms: _477  and  _479
REMARK  198  A    between atoms: _479  and  _480
REMARK  199  A    between atoms: _479  and  _482
REMARK  200  A    between atoms: _482  and  _483
REMARK  201  A    between atoms: _488  and  _489
REMARK  202  A    between atoms: _491  and  _493
REMARK  203  A    between atoms: _493  and  _494
REMARK  204  A    between atoms: _497  and  _499
REMARK  205  A    between atoms: _499  and  _500
REMARK  206  A    between atoms: _499  and  _502
REMARK  207  A    between atoms: _502  and  _503
REMARK  208  A    between atoms: _503  and  _504
REMARK  209  A    between atoms: _506  and  _508
REMARK  210  A    between atoms: _508  and  _509
REMARK  211  A    between atoms: _508  and  _511
REMARK  212  A    between atoms: _511  and  _512
REMARK  213  A    between atoms: _517  and  _519
REMARK  214  A    between atoms: _519  and  _520
REMARK  215  A    between atoms: _519  and  _522
REMARK  216  A    between atoms: _522  and  _523
REMARK  217  A    between atoms: _523  and  _524
REMARK  218  A    between atoms: _524  and  _525
REMARK  219  A    between atoms: _534  and  _536
REMARK  220  A    between atoms: _536  and  _537
REMARK  221  A    between atoms: _536  and  _539
REMARK  222  A    between atoms: _539  and  _540
REMARK  223  A    between atoms: _540  and  _541
REMARK  224  A    between atoms: _544  and  _546
REMARK  225  A    between atoms: _546  and  _547
REMARK  226  A    between atoms: _546  and  _549
REMARK  227  A    between atoms: _552  and  _554
REMARK  228  A    between atoms: _554  and  _555
REMARK  229  A    between atoms: _554  and  _557
REMARK  230  A    between atoms: _557  and  _558
REMARK                            x       y       z     vdW  Elec       q    Type
REMARK                         _______ _______ _______ _____ _____    ______ ____
ROOT
ATOM      1  O   HOH     1      13.449   0.500  -0.658  0.00  0.00    +0.000 OA
ENDROOT
TORSDOF 0
