REMARK  Name = ../refined-set-2016/2r5a/2r5a_pocket.pdb
REMARK  91 active torsions:
REMARK  status: ('A' for Active; 'I' for Inactive)
REMARK    1  A    between atoms: _1  and  _3
REMARK    2  A    between atoms: _3  and  _4
REMARK    3  A    between atoms: _7  and  _9
REMARK    4  A    between atoms: _9  and  _10
REMARK    5  A    between atoms: _9  and  _12
REMARK    6  A    between atoms: _15  and  _17
REMARK    7  A    between atoms: _17  and  _18
REMARK    8  A    between atoms: _17  and  _20
REMARK    9  A    between atoms: _20  and  _21
REMARK   10  A    between atoms: _24  and  _26
REMARK   11  A    between atoms: _26  and  _27
REMARK   12  A    between atoms: _26  and  _29
REMARK   13  A    between atoms: _29  and  _30
REMARK   14  A    between atoms: _30  and  _31
REMARK   15  A    between atoms: _31  and  _32
REMARK   16  A    between atoms: _32  and  _33
REMARK   17  A    between atoms: _37  and  _39
REMARK   18  A    between atoms: _39  and  _40
REMARK   19  A    between atoms: _39  and  _42
REMARK   20  A    between atoms: _42  and  _43
REMARK   21  A    between atoms: _43  and  _44
REMARK   22  A    between atoms: _44  and  _45
REMARK   23  A    between atoms: _45  and  _46
REMARK   24  A    between atoms: _50  and  _52
REMARK   25  A    between atoms: _52  and  _53
REMARK   26  A    between atoms: _52  and  _55
REMARK   27  A    between atoms: _55  and  _56
REMARK   28  A    between atoms: _61  and  _63
REMARK   29  A    between atoms: _63  and  _64
REMARK   30  A    between atoms: _63  and  _66
REMARK   31  A    between atoms: _66  and  _67
REMARK   32  A    between atoms: _70  and  _72
REMARK   33  A    between atoms: _72  and  _73
REMARK   34  A    between atoms: _72  and  _75
REMARK   35  A    between atoms: _75  and  _76
REMARK   36  A    between atoms: _79  and  _81
REMARK   37  A    between atoms: _81  and  _82
REMARK   38  A    between atoms: _81  and  _84
REMARK   39  A    between atoms: _86  and  _88
REMARK   40  A    between atoms: _88  and  _89
REMARK   41  A    between atoms: _88  and  _91
REMARK   42  A    between atoms: _93  and  _95
REMARK   43  A    between atoms: _95  and  _96
REMARK   44  A    between atoms: _99  and  _101
REMARK   45  A    between atoms: _101  and  _102
REMARK   46  A    between atoms: _101  and  _104
REMARK   47  A    between atoms: _104  and  _105
REMARK   48  A    between atoms: _108  and  _110
REMARK   49  A    between atoms: _110  and  _111
REMARK   50  A    between atoms: _110  and  _113
REMARK   51  A    between atoms: _113  and  _114
REMARK   52  A    between atoms: _120  and  _122
REMARK   53  A    between atoms: _122  and  _123
REMARK   54  A    between atoms: _122  and  _125
REMARK   55  A    between atoms: _125  and  _126
REMARK   56  A    between atoms: _129  and  _131
REMARK   57  A    between atoms: _131  and  _132
REMARK   58  A    between atoms: _134  and  _136
REMARK   59  A    between atoms: _136  and  _137
REMARK   60  A    between atoms: _136  and  _139
REMARK   61  A    between atoms: _139  and  _140
REMARK   62  A    between atoms: _150  and  _152
REMARK   63  A    between atoms: _152  and  _153
REMARK   64  A    between atoms: _152  and  _155
REMARK   65  A    between atoms: _155  and  _156
REMARK   66  A    between atoms: _156  and  _157
REMARK   67  A    between atoms: _157  and  _158
REMARK   68  A    between atoms: _167  and  _169
REMARK   69  A    between atoms: _169  and  _170
REMARK   70  A    between atoms: _173  and  _175
REMARK   71  A    between atoms: _175  and  _176
REMARK   72  A    between atoms: _175  and  _178
REMARK   73  A    between atoms: _178  and  _179
REMARK   74  A    between atoms: _185  and  _187
REMARK   75  A    between atoms: _187  and  _188
REMARK   76  A    between atoms: _187  and  _190
REMARK   77  A    between atoms: _190  and  _191
REMARK   78  A    between atoms: _194  and  _196
REMARK   79  A    between atoms: _196  and  _197
REMARK   80  A    between atoms: _196  and  _199
REMARK   81  A    between atoms: _199  and  _200
REMARK   82  A    between atoms: _205  and  _206
REMARK   83  A    between atoms: _208  and  _210
REMARK   84  A    between atoms: _210  and  _211
REMARK   85  A    between atoms: _210  and  _213
REMARK   86  A    between atoms: _213  and  _214
REMARK   87  A    between atoms: _214  and  _215
REMARK   88  A    between atoms: _221  and  _222
REMARK   89  A    between atoms: _228  and  _229
REMARK   90  A    between atoms: _234  and  _236
REMARK   91  A    between atoms: _236  and  _237
REMARK                            x       y       z     vdW  Elec       q    Type
REMARK                         _______ _______ _______ _____ _____    ______ ____
ROOT
ATOM      1  CA  LYS A   4     -27.710  -9.964 -21.426  0.00  0.00    +0.149 C 
ENDROOT
BRANCH   1   4
ATOM      2  C   ASP A   3     -25.662 -11.085 -20.707  0.00  0.00    +0.241 C 
ATOM      3  O   ASP A   3     -25.973 -10.979 -19.521  0.00  0.00    -0.273 OA
ATOM      4  N   LYS A   4     -26.447 -10.669 -21.700  0.00  0.00    -0.297 N 
ATOM      5  H   LYS A   4     -26.163 -10.845 -22.685  0.00  0.00    +0.150 HD
BRANCH   2   6
ATOM      6  CA  ASP A   3     -24.330 -11.706 -21.096  0.00  0.00    +0.160 C 
BRANCH   6   8
ATOM      7  C   VAL A   2     -23.062  -9.676 -21.425  0.00  0.00    +0.241 C 
ATOM      8  N   ASP A   3     -23.338 -10.739 -20.676  0.00  0.00    -0.297 N 
ATOM      9  H   ASP A   3     -22.835 -10.878 -19.777  0.00  0.00    +0.150 HD
ATOM     10  O   VAL A   2     -23.478  -9.546 -22.583  0.00  0.00    -0.273 OA
BRANCH   7  11
ATOM     11  CA  VAL A   2     -22.166  -8.609 -20.787  0.00  0.00    +0.148 C 
BRANCH  11  14
ATOM     12  C   ALA A   1     -20.237  -9.118 -22.149  0.00  0.00    +0.238 C 
ATOM     13  O   ALA A   1     -20.101 -10.213 -21.615  0.00  0.00    -0.274 OA
ATOM     14  N   VAL A   2     -21.146  -8.237 -21.750  0.00  0.00    -0.297 N 
ATOM     15  H   VAL A   2     -21.127  -7.270 -22.132  0.00  0.00    +0.150 HD
BRANCH  12  16
ATOM     16  CA  ALA A   1     -19.349  -8.706 -23.320  0.00  0.00    +0.145 C 
ATOM     17  CB  ALA A   1     -19.924  -9.249 -24.649  0.00  0.00    +0.028 C 
BRANCH  16  18
ATOM     18  N   ALA A   1     -17.948  -9.123 -23.167  0.00  0.00    -0.238 NA
ATOM     19  H   ALA A   1     -17.735 -10.104 -22.895  0.00  0.00    +0.142 HD
ENDBRANCH  16  18
ENDBRANCH  12  16
ENDBRANCH  11  14
BRANCH  11  20
ATOM     20  CB  VAL A   2     -23.041  -7.399 -20.307  0.00  0.00    +0.027 C 
ATOM     21  CG2 VAL A   2     -24.194  -7.880 -19.405  0.00  0.00    +0.002 C 
ATOM     22  CG1 VAL A   2     -22.206  -6.365 -19.559  0.00  0.00    +0.002 C 
ENDBRANCH  11  20
ENDBRANCH   7  11
ENDBRANCH   6   8
BRANCH   6  23
ATOM     23  CB  ASP A   3     -24.096 -13.043 -20.390  0.00  0.00    +0.143 C 
BRANCH  23  24
ATOM     24  CG  ASP A   3     -25.229 -14.037 -20.595  0.00  0.00    +0.367 C 
ATOM     25  OD2 ASP A   3     -25.157 -15.138 -20.006  0.00  0.00    -0.246 OA
ATOM     26  OD1 ASP A   3     -26.191 -13.738 -21.335  0.00  0.00    -0.246 OA
ENDBRANCH  23  24
ENDBRANCH   6  23
ENDBRANCH   2   6
ENDBRANCH   1   4
BRANCH   1  27
ATOM     27  C   LYS A   4     -28.773 -10.837 -20.756  0.00  0.00    +0.241 C 
ATOM     28  O   LYS A   4     -29.699 -10.315 -20.139  0.00  0.00    -0.273 OA
ATOM     29  N   LYS A   5     -28.614 -12.154 -20.860  0.00  0.00    -0.297 N 
ATOM     30  H   LYS A   5     -27.824 -12.519 -21.429  0.00  0.00    +0.150 HD
BRANCH  29  31
ATOM     31  CA  LYS A   5     -29.511 -13.111 -20.202  0.00  0.00    +0.149 C 
BRANCH  31  32
ATOM     32  C   LYS A   5     -29.122 -13.365 -18.737  0.00  0.00    +0.241 C 
ATOM     33  O   LYS A   5     -29.929 -13.877 -17.956  0.00  0.00    -0.273 OA
ATOM     34  N   ASN A   6     -27.881 -13.018 -18.385  0.00  0.00    -0.298 N 
ATOM     35  H   ASN A   6     -27.256 -12.634 -19.122  0.00  0.00    +0.150 HD
BRANCH  34  36
ATOM     36  CA  ASN A   6     -27.341 -13.143 -17.026  0.00  0.00    +0.146 C 
BRANCH  36  37
ATOM     37  C   ASN A   6     -26.396 -11.957 -16.805  0.00  0.00    +0.227 C 
ATOM     38  O   ASN A   6     -25.180 -12.142 -16.778  0.00  0.00    -0.286 OA
ENDBRANCH  36  37
BRANCH  36  39
ATOM     39  CB  ASN A   6     -26.546 -14.448 -16.876  0.00  0.00    +0.112 C 
BRANCH  39  40
ATOM     40  CG  ASN A   6     -27.368 -15.686 -17.201  0.00  0.00    +0.222 C 
ATOM     41  OD1 ASN A   6     -28.263 -16.060 -16.450  0.00  0.00    -0.275 OA
ATOM     42  ND2 ASN A   6     -27.056 -16.330 -18.325  0.00  0.00    -0.329 N 
ATOM     43 HD21 ASN A   6     -27.580 -17.187 -18.596  0.00  0.00    +0.145 HD
ATOM     44 HD22 ASN A   6     -26.289 -15.976 -18.931  0.00  0.00    +0.145 HD
ENDBRANCH  39  40
ENDBRANCH  36  39
ENDBRANCH  34  36
ENDBRANCH  31  32
BRANCH  31  45
ATOM     45  CB  LYS A   5     -29.544 -14.432 -20.982  0.00  0.00    +0.029 C 
BRANCH  45  46
ATOM     46  CG  LYS A   5     -30.110 -14.298 -22.399  0.00  0.00    +0.000 C 
BRANCH  46  47
ATOM     47  CD  LYS A   5     -30.151 -15.623 -23.151  0.00  0.00    -0.024 C 
BRANCH  47  48
ATOM     48  CE  LYS A   5     -31.524 -16.253 -23.091  0.00  0.00    -0.086 C 
BRANCH  48  49
ATOM     49  NZ  LYS A   5     -31.545 -17.609 -23.728  0.00  0.00    +0.380 N 
ATOM     50  HZ1 LYS A   5     -30.877 -18.234 -23.232  0.00  0.00    -0.089 HD
ATOM     51  HZ2 LYS A   5     -32.504 -18.005 -23.665  0.00  0.00    -0.089 HD
ATOM     52  HZ3 LYS A   5     -31.268 -17.526 -24.727  0.00  0.00    -0.089 HD
ENDBRANCH  48  49
ENDBRANCH  47  48
ENDBRANCH  46  47
ENDBRANCH  45  46
ENDBRANCH  31  45
ENDBRANCH  29  31
ENDBRANCH   1  27
BRANCH   1  53
ATOM     53  CB  LYS A   4     -28.257  -9.285 -22.688  0.00  0.00    +0.029 C 
BRANCH  53  54
ATOM     54  CG  LYS A   4     -27.262  -8.332 -23.275  0.00  0.00    +0.000 C 
BRANCH  54  55
ATOM     55  CD  LYS A   4     -27.863  -7.381 -24.281  0.00  0.00    -0.024 C 
BRANCH  55  56
ATOM     56  CE  LYS A   4     -26.902  -6.230 -24.485  0.00  0.00    -0.086 C 
BRANCH  56  57
ATOM     57  NZ  LYS A   4     -27.515  -5.083 -25.179  0.00  0.00    +0.380 N 
ATOM     58  HZ1 LYS A   4     -28.318  -4.730 -24.620  0.00  0.00    -0.089 HD
ATOM     59  HZ2 LYS A   4     -26.808  -4.328 -25.289  0.00  0.00    -0.089 HD
ATOM     60  HZ3 LYS A   4     -27.850  -5.385 -26.116  0.00  0.00    -0.089 HD
ENDBRANCH  56  57
ENDBRANCH  55  56
ENDBRANCH  54  55
ENDBRANCH  53  54
ENDBRANCH   1  53
TORSDOF 27
REMARK  Name = ../refined-set-2016/2r5a/2r5a_pocket.pdb
REMARK  91 active torsions:
REMARK  status: ('A' for Active; 'I' for Inactive)
REMARK    1  A    between atoms: _1  and  _3
REMARK    2  A    between atoms: _3  and  _4
REMARK    3  A    between atoms: _7  and  _9
REMARK    4  A    between atoms: _9  and  _10
REMARK    5  A    between atoms: _9  and  _12
REMARK    6  A    between atoms: _15  and  _17
REMARK    7  A    between atoms: _17  and  _18
REMARK    8  A    between atoms: _17  and  _20
REMARK    9  A    between atoms: _20  and  _21
REMARK   10  A    between atoms: _24  and  _26
REMARK   11  A    between atoms: _26  and  _27
REMARK   12  A    between atoms: _26  and  _29
REMARK   13  A    between atoms: _29  and  _30
REMARK   14  A    between atoms: _30  and  _31
REMARK   15  A    between atoms: _31  and  _32
REMARK   16  A    between atoms: _32  and  _33
REMARK   17  A    between atoms: _37  and  _39
REMARK   18  A    between atoms: _39  and  _40
REMARK   19  A    between atoms: _39  and  _42
REMARK   20  A    between atoms: _42  and  _43
REMARK   21  A    between atoms: _43  and  _44
REMARK   22  A    between atoms: _44  and  _45
REMARK   23  A    between atoms: _45  and  _46
REMARK   24  A    between atoms: _50  and  _52
REMARK   25  A    between atoms: _52  and  _53
REMARK   26  A    between atoms: _52  and  _55
REMARK   27  A    between atoms: _55  and  _56
REMARK   28  A    between atoms: _61  and  _63
REMARK   29  A    between atoms: _63  and  _64
REMARK   30  A    between atoms: _63  and  _66
REMARK   31  A    between atoms: _66  and  _67
REMARK   32  A    between atoms: _70  and  _72
REMARK   33  A    between atoms: _72  and  _73
REMARK   34  A    between atoms: _72  and  _75
REMARK   35  A    between atoms: _75  and  _76
REMARK   36  A    between atoms: _79  and  _81
REMARK   37  A    between atoms: _81  and  _82
REMARK   38  A    between atoms: _81  and  _84
REMARK   39  A    between atoms: _86  and  _88
REMARK   40  A    between atoms: _88  and  _89
REMARK   41  A    between atoms: _88  and  _91
REMARK   42  A    between atoms: _93  and  _95
REMARK   43  A    between atoms: _95  and  _96
REMARK   44  A    between atoms: _99  and  _101
REMARK   45  A    between atoms: _101  and  _102
REMARK   46  A    between atoms: _101  and  _104
REMARK   47  A    between atoms: _104  and  _105
REMARK   48  A    between atoms: _108  and  _110
REMARK   49  A    between atoms: _110  and  _111
REMARK   50  A    between atoms: _110  and  _113
REMARK   51  A    between atoms: _113  and  _114
REMARK   52  A    between atoms: _120  and  _122
REMARK   53  A    between atoms: _122  and  _123
REMARK   54  A    between atoms: _122  and  _125
REMARK   55  A    between atoms: _125  and  _126
REMARK   56  A    between atoms: _129  and  _131
REMARK   57  A    between atoms: _131  and  _132
REMARK   58  A    between atoms: _134  and  _136
REMARK   59  A    between atoms: _136  and  _137
REMARK   60  A    between atoms: _136  and  _139
REMARK   61  A    between atoms: _139  and  _140
REMARK   62  A    between atoms: _150  and  _152
REMARK   63  A    between atoms: _152  and  _153
REMARK   64  A    between atoms: _152  and  _155
REMARK   65  A    between atoms: _155  and  _156
REMARK   66  A    between atoms: _156  and  _157
REMARK   67  A    between atoms: _157  and  _158
REMARK   68  A    between atoms: _167  and  _169
REMARK   69  A    between atoms: _169  and  _170
REMARK   70  A    between atoms: _173  and  _175
REMARK   71  A    between atoms: _175  and  _176
REMARK   72  A    between atoms: _175  and  _178
REMARK   73  A    between atoms: _178  and  _179
REMARK   74  A    between atoms: _185  and  _187
REMARK   75  A    between atoms: _187  and  _188
REMARK   76  A    between atoms: _187  and  _190
REMARK   77  A    between atoms: _190  and  _191
REMARK   78  A    between atoms: _194  and  _196
REMARK   79  A    between atoms: _196  and  _197
REMARK   80  A    between atoms: _196  and  _199
REMARK   81  A    between atoms: _199  and  _200
REMARK   82  A    between atoms: _205  and  _206
REMARK   83  A    between atoms: _208  and  _210
REMARK   84  A    between atoms: _210  and  _211
REMARK   85  A    between atoms: _210  and  _213
REMARK   86  A    between atoms: _213  and  _214
REMARK   87  A    between atoms: _214  and  _215
REMARK   88  A    between atoms: _221  and  _222
REMARK   89  A    between atoms: _228  and  _229
REMARK   90  A    between atoms: _234  and  _236
REMARK   91  A    between atoms: _236  and  _237
REMARK                            x       y       z     vdW  Elec       q    Type
REMARK                         _______ _______ _______ _____ _____    ______ ____
ROOT
ATOM      1  C   ILE A   2     -18.181 -11.504 -18.958  0.00  0.00    +0.241 C 
ATOM      2  O   ILE A   2     -17.456 -12.107 -18.144  0.00  0.00    -0.273 OA
ATOM      3  N   CYS A   3     -18.261 -11.799 -20.256  0.00  0.00    -0.296 N 
ATOM      4  H   CYS A   3     -18.711 -11.113 -20.895  0.00  0.00    +0.150 HD
ENDROOT
BRANCH   3   5
ATOM      5  CA  CYS A   3     -17.749 -13.033 -20.814  0.00  0.00    +0.160 C 
BRANCH   5   6
ATOM      6  C   CYS A   3     -16.928 -12.828 -22.081  0.00  0.00    +0.242 C 
ATOM      7  N   CYS A   4     -16.041 -13.782 -22.282  0.00  0.00    -0.296 N 
ATOM      8  H   CYS A   4     -15.865 -14.446 -21.501  0.00  0.00    +0.150 HD
ATOM      9  O   CYS A   3     -17.082 -11.848 -22.823  0.00  0.00    -0.273 OA
BRANCH   7  10
ATOM     10  CA  CYS A   4     -15.297 -13.975 -23.499  0.00  0.00    +0.160 C 
BRANCH  10  11
ATOM     11  C   CYS A   4     -16.263 -14.066 -24.704  0.00  0.00    +0.242 C 
ATOM     12  O   CYS A   4     -17.203 -14.875 -24.714  0.00  0.00    -0.273 OA
ATOM     13  N   ALA A   5     -16.042 -13.214 -25.699  0.00  0.00    -0.298 N 
ATOM     14  H   ALA A   5     -15.204 -12.599 -25.662  0.00  0.00    +0.150 HD
BRANCH  13  15
ATOM     15  CA  ALA A   5     -16.943 -13.118 -26.842  0.00  0.00    +0.137 C 
ATOM     16  CB  ALA A   5     -18.086 -12.120 -26.542  0.00  0.00    +0.030 C 
BRANCH  15  17
ATOM     17  C   ALA A   5     -16.222 -12.768 -28.158  0.00  0.00    +0.227 C 
ATOM     18  O   ALA A   5     -15.071 -12.317 -28.158  0.00  0.00    -0.286 OA
ENDBRANCH  15  17
ENDBRANCH  13  15
ENDBRANCH  10  11
BRANCH  10  19
ATOM     19  CB  CYS A   4     -14.506 -15.272 -23.323  0.00  0.00    +0.098 C 
ATOM     20  SG  CYS A   4     -13.386 -15.631 -24.603  0.00  0.00    -0.080 S 
ENDBRANCH  10  19
ENDBRANCH   7  10
ENDBRANCH   5   6
BRANCH   5  21
ATOM     21  CB  CYS A   3     -18.894 -14.015 -21.128  0.00  0.00    +0.098 C 
ATOM     22  SG  CYS A   3     -20.280 -14.014 -19.973  0.00  0.00    -0.080 S 
ENDBRANCH   5  21
ENDBRANCH   3   5
BRANCH   1  23
ATOM     23  CA  ILE A   2     -19.097 -10.389 -18.500  0.00  0.00    +0.148 C 
BRANCH  23  25
ATOM     24  C   LEU A   1     -21.095 -11.131 -17.293  0.00  0.00    +0.238 C 
ATOM     25  N   ILE A   2     -19.783 -10.921 -17.330  0.00  0.00    -0.297 N 
ATOM     26  H   ILE A   2     -19.220 -11.147 -16.485  0.00  0.00    +0.150 HD
ATOM     27  O   LEU A   1     -21.885 -10.679 -18.127  0.00  0.00    -0.274 OA
BRANCH  24  28
ATOM     28  CA  LEU A   1     -21.586 -11.935 -16.104  0.00  0.00    +0.145 C 
BRANCH  28  29
ATOM     29  N   LEU A   1     -22.728 -11.287 -15.450  0.00  0.00    -0.238 NA
ATOM     30  H   LEU A   1     -23.676 -11.433 -15.852  0.00  0.00    +0.142 HD
ENDBRANCH  28  29
BRANCH  28  31
ATOM     31  CB  LEU A   1     -21.934 -13.372 -16.547  0.00  0.00    +0.026 C 
BRANCH  31  32
ATOM     32  CG  LEU A   1     -22.608 -14.341 -15.563  0.00  0.00    +0.002 C 
ATOM     33  CD2 LEU A   1     -21.743 -14.654 -14.348  0.00  0.00    +0.000 C 
ATOM     34  CD1 LEU A   1     -23.009 -15.628 -16.280  0.00  0.00    +0.000 C 
ENDBRANCH  31  32
ENDBRANCH  28  31
ENDBRANCH  24  28
ENDBRANCH  23  25
BRANCH  23  35
ATOM     35  CB  ILE A   2     -18.301  -9.079 -18.204  0.00  0.00    +0.027 C 
ATOM     36  CG2 ILE A   2     -17.478  -8.672 -19.439  0.00  0.00    +0.002 C 
BRANCH  35  37
ATOM     37  CG1 ILE A   2     -19.273  -7.957 -17.783  0.00  0.00    +0.002 C 
ATOM     38  CD1 ILE A   2     -18.630  -6.650 -17.306  0.00  0.00    +0.000 C 
ENDBRANCH  35  37
ENDBRANCH  23  35
ENDBRANCH   1  23
TORSDOF 16
REMARK  Name = ../refined-set-2016/2r5a/2r5a_pocket.pdb
REMARK  91 active torsions:
REMARK  status: ('A' for Active; 'I' for Inactive)
REMARK    1  A    between atoms: _1  and  _3
REMARK    2  A    between atoms: _3  and  _4
REMARK    3  A    between atoms: _7  and  _9
REMARK    4  A    between atoms: _9  and  _10
REMARK    5  A    between atoms: _9  and  _12
REMARK    6  A    between atoms: _15  and  _17
REMARK    7  A    between atoms: _17  and  _18
REMARK    8  A    between atoms: _17  and  _20
REMARK    9  A    between atoms: _20  and  _21
REMARK   10  A    between atoms: _24  and  _26
REMARK   11  A    between atoms: _26  and  _27
REMARK   12  A    between atoms: _26  and  _29
REMARK   13  A    between atoms: _29  and  _30
REMARK   14  A    between atoms: _30  and  _31
REMARK   15  A    between atoms: _31  and  _32
REMARK   16  A    between atoms: _32  and  _33
REMARK   17  A    between atoms: _37  and  _39
REMARK   18  A    between atoms: _39  and  _40
REMARK   19  A    between atoms: _39  and  _42
REMARK   20  A    between atoms: _42  and  _43
REMARK   21  A    between atoms: _43  and  _44
REMARK   22  A    between atoms: _44  and  _45
REMARK   23  A    between atoms: _45  and  _46
REMARK   24  A    between atoms: _50  and  _52
REMARK   25  A    between atoms: _52  and  _53
REMARK   26  A    between atoms: _52  and  _55
REMARK   27  A    between atoms: _55  and  _56
REMARK   28  A    between atoms: _61  and  _63
REMARK   29  A    between atoms: _63  and  _64
REMARK   30  A    between atoms: _63  and  _66
REMARK   31  A    between atoms: _66  and  _67
REMARK   32  A    between atoms: _70  and  _72
REMARK   33  A    between atoms: _72  and  _73
REMARK   34  A    between atoms: _72  and  _75
REMARK   35  A    between atoms: _75  and  _76
REMARK   36  A    between atoms: _79  and  _81
REMARK   37  A    between atoms: _81  and  _82
REMARK   38  A    between atoms: _81  and  _84
REMARK   39  A    between atoms: _86  and  _88
REMARK   40  A    between atoms: _88  and  _89
REMARK   41  A    between atoms: _88  and  _91
REMARK   42  A    between atoms: _93  and  _95
REMARK   43  A    between atoms: _95  and  _96
REMARK   44  A    between atoms: _99  and  _101
REMARK   45  A    between atoms: _101  and  _102
REMARK   46  A    between atoms: _101  and  _104
REMARK   47  A    between atoms: _104  and  _105
REMARK   48  A    between atoms: _108  and  _110
REMARK   49  A    between atoms: _110  and  _111
REMARK   50  A    between atoms: _110  and  _113
REMARK   51  A    between atoms: _113  and  _114
REMARK   52  A    between atoms: _120  and  _122
REMARK   53  A    between atoms: _122  and  _123
REMARK   54  A    between atoms: _122  and  _125
REMARK   55  A    between atoms: _125  and  _126
REMARK   56  A    between atoms: _129  and  _131
REMARK   57  A    between atoms: _131  and  _132
REMARK   58  A    between atoms: _134  and  _136
REMARK   59  A    between atoms: _136  and  _137
REMARK   60  A    between atoms: _136  and  _139
REMARK   61  A    between atoms: _139  and  _140
REMARK   62  A    between atoms: _150  and  _152
REMARK   63  A    between atoms: _152  and  _153
REMARK   64  A    between atoms: _152  and  _155
REMARK   65  A    between atoms: _155  and  _156
REMARK   66  A    between atoms: _156  and  _157
REMARK   67  A    between atoms: _157  and  _158
REMARK   68  A    between atoms: _167  and  _169
REMARK   69  A    between atoms: _169  and  _170
REMARK   70  A    between atoms: _173  and  _175
REMARK   71  A    between atoms: _175  and  _176
REMARK   72  A    between atoms: _175  and  _178
REMARK   73  A    between atoms: _178  and  _179
REMARK   74  A    between atoms: _185  and  _187
REMARK   75  A    between atoms: _187  and  _188
REMARK   76  A    between atoms: _187  and  _190
REMARK   77  A    between atoms: _190  and  _191
REMARK   78  A    between atoms: _194  and  _196
REMARK   79  A    between atoms: _196  and  _197
REMARK   80  A    between atoms: _196  and  _199
REMARK   81  A    between atoms: _199  and  _200
REMARK   82  A    between atoms: _205  and  _206
REMARK   83  A    between atoms: _208  and  _210
REMARK   84  A    between atoms: _210  and  _211
REMARK   85  A    between atoms: _210  and  _213
REMARK   86  A    between atoms: _213  and  _214
REMARK   87  A    between atoms: _214  and  _215
REMARK   88  A    between atoms: _221  and  _222
REMARK   89  A    between atoms: _228  and  _229
REMARK   90  A    between atoms: _234  and  _236
REMARK   91  A    between atoms: _236  and  _237
REMARK                            x       y       z     vdW  Elec       q    Type
REMARK                         _______ _______ _______ _____ _____    ______ ____
ROOT
ATOM      1  C   GLY A   4     -19.463 -22.212 -25.577  0.00  0.00    +0.243 C 
ATOM      2  O   GLY A   4     -19.824 -23.211 -24.961  0.00  0.00    -0.273 OA
ATOM      3  N   TRP A   5     -20.299 -21.247 -25.945  0.00  0.00    -0.297 N 
ATOM      4  H   TRP A   5     -19.920 -20.412 -26.435  0.00  0.00    +0.150 HD
ENDROOT
BRANCH   3   5
ATOM      5  CA  TRP A   5     -21.732 -21.324 -25.682  0.00  0.00    +0.153 C 
BRANCH   5   6
ATOM      6  C   TRP A   5     -22.534 -21.410 -26.975  0.00  0.00    +0.241 C 
ATOM      7  N   ARG A   6     -23.681 -22.077 -26.898  0.00  0.00    -0.298 N 
ATOM      8  H   ARG A   6     -23.921 -22.563 -26.011  0.00  0.00    +0.150 HD
ATOM      9  O   TRP A   5     -22.120 -20.894 -28.022  0.00  0.00    -0.273 OA
BRANCH   7  10
ATOM     10  CA  ARG A   6     -24.617 -22.150 -28.020  0.00  0.00    +0.137 C 
BRANCH  10  11
ATOM     11  C   ARG A   6     -25.023 -20.728 -28.442  0.00  0.00    +0.227 C 
ATOM     12  O   ARG A   6     -25.012 -19.810 -27.617  0.00  0.00    -0.286 OA
ENDBRANCH  10  11
BRANCH  10  13
ATOM     13  CB  ARG A   6     -25.844 -23.001 -27.636  0.00  0.00    +0.031 C 
BRANCH  13  14
ATOM     14  CG  ARG A   6     -26.474 -22.630 -26.274  0.00  0.00    +0.045 C 
BRANCH  14  15
ATOM     15  CD  ARG A   6     -27.289 -23.788 -25.669  0.00  0.00    +0.174 C 
BRANCH  15  16
ATOM     16  NE  ARG A   6     -28.239 -23.308 -24.655  0.00  0.00    -0.265 N 
ATOM     17  CZ  ARG A   6     -27.941 -23.038 -23.381  0.00  0.00    +0.342 C 
ATOM     18  NH2 ARG A   6     -28.887 -22.600 -22.556  0.00  0.00    -0.292 N 
ATOM     19 HH21 ARG A   6     -28.655 -22.390 -21.564  0.00  0.00    +0.255 HD
ATOM     20 HH22 ARG A   6     -29.859 -22.468 -22.902  0.00  0.00    +0.255 HD
ATOM     21  NH1 ARG A   6     -26.706 -23.203 -22.920  0.00  0.00    -0.292 N 
ATOM     22 HH11 ARG A   6     -26.489 -22.989 -21.926  0.00  0.00    +0.255 HD
ATOM     23 HH12 ARG A   6     -25.956 -23.547 -23.553  0.00  0.00    +0.255 HD
ATOM     24  HE  ARG A   6     -29.225 -23.167 -24.954  0.00  0.00    +0.259 HD
ENDBRANCH  15  16
ENDBRANCH  14  15
ENDBRANCH  13  14
ENDBRANCH  10  13
ENDBRANCH   7  10
ENDBRANCH   5   6
BRANCH   5  25
ATOM     25  CB  TRP A   5     -22.200 -20.129 -24.845  0.00  0.00    +0.057 C 
BRANCH  25  26
ATOM     26  CG  TRP A   5     -21.559 -20.076 -23.481  0.00  0.00    -0.002 A 
ATOM     27  CD2 TRP A   5     -22.004 -20.744 -22.290  0.00  0.00    +0.013 A 
ATOM     28  CE2 TRP A   5     -21.087 -20.420 -21.265  0.00  0.00    +0.056 A 
ATOM     29  CZ2 TRP A   5     -21.219 -20.903 -19.954  0.00  0.00    +0.017 A 
ATOM     30  CH2 TRP A   5     -22.287 -21.724 -19.683  0.00  0.00    +0.001 A 
ATOM     31  CZ3 TRP A   5     -23.217 -22.072 -20.681  0.00  0.00    +0.000 A 
ATOM     32  NE1 TRP A   5     -20.137 -19.599 -21.814  0.00  0.00    -0.352 N 
ATOM     33  HE1 TRP A   5     -19.327 -19.190 -21.306  0.00  0.00    +0.166 HD
ATOM     34  CE3 TRP A   5     -23.087 -21.588 -21.989  0.00  0.00    +0.001 A 
ATOM     35  CD1 TRP A   5     -20.425 -19.403 -23.140  0.00  0.00    +0.068 A 
ENDBRANCH  25  26
ENDBRANCH   5  25
ENDBRANCH   3   5
BRANCH   1  36
ATOM     36  CA  GLY A   4     -18.004 -22.024 -25.947  0.00  0.00    +0.176 C 
BRANCH  36  39
ATOM     37  C   ASP A   3     -17.536 -19.625 -26.099  0.00  0.00    +0.241 C 
ATOM     38  O   ASP A   3     -17.669 -19.443 -24.882  0.00  0.00    -0.273 OA
ATOM     39  N   GLY A   4     -17.719 -20.801 -26.691  0.00  0.00    -0.295 N 
ATOM     40  H   GLY A   4     -17.656 -20.852 -27.728  0.00  0.00    +0.150 HD
BRANCH  37  41
ATOM     41  CA  ASP A   3     -17.170 -18.469 -27.026  0.00  0.00    +0.160 C 
BRANCH  41  43
ATOM     42  C   PHE A   2     -19.391 -17.466 -26.917  0.00  0.00    +0.241 C 
ATOM     43  N   ASP A   3     -18.072 -17.336 -26.795  0.00  0.00    -0.297 N 
ATOM     44  H   ASP A   3     -17.673 -16.413 -26.531  0.00  0.00    +0.150 HD
ATOM     45  O   PHE A   2     -19.947 -18.538 -27.194  0.00  0.00    -0.273 OA
BRANCH  42  46
ATOM     46  CA  PHE A   2     -20.189 -16.187 -26.748  0.00  0.00    +0.153 C 
BRANCH  46  48
ATOM     47  C   THR A   1     -20.422 -14.844 -28.778  0.00  0.00    +0.241 C 
ATOM     48  N   PHE A   2     -20.910 -15.783 -27.964  0.00  0.00    -0.297 N 
ATOM     49  H   PHE A   2     -21.817 -16.237 -28.194  0.00  0.00    +0.150 HD
ATOM     50  O   THR A   1     -19.309 -14.321 -28.613  0.00  0.00    -0.274 OA
BRANCH  47  51
ATOM     51  CA  THR A   1     -21.312 -14.417 -29.958  0.00  0.00    +0.172 C 
BRANCH  51  52
ATOM     52  N   THR A   1     -21.153 -13.000 -30.207  0.00  0.00    -0.236 NA
ATOM     53  H   THR A   1     -20.203 -12.637 -30.425  0.00  0.00    +0.142 HD
ENDBRANCH  51  52
BRANCH  51  54
ATOM     54  CB  THR A   1     -21.036 -15.263 -31.246  0.00  0.00    +0.135 C 
ATOM     55  CG2 THR A   1     -19.554 -15.328 -31.594  0.00  0.00    +0.034 C 
BRANCH  54  56
ATOM     56  OG1 THR A   1     -21.533 -16.593 -31.061  0.00  0.00    -0.383 OA
ATOM     57  HG1 THR A   1     -22.508 -16.559 -30.891  0.00  0.00    +0.210 HD
ENDBRANCH  54  56
ENDBRANCH  51  54
ENDBRANCH  47  51
ENDBRANCH  46  48
BRANCH  46  58
ATOM     58  CB  PHE A   2     -21.125 -16.202 -25.535  0.00  0.00    +0.055 C 
BRANCH  58  59
ATOM     59  CG  PHE A   2     -21.546 -14.827 -25.123  0.00  0.00    -0.020 A 
ATOM     60  CD2 PHE A   2     -20.783 -14.102 -24.209  0.00  0.00    -0.004 A 
ATOM     61  CE2 PHE A   2     -21.134 -12.809 -23.865  0.00  0.00    -0.000 A 
ATOM     62  CZ  PHE A   2     -22.249 -12.216 -24.449  0.00  0.00    -0.000 A 
ATOM     63  CE1 PHE A   2     -23.006 -12.915 -25.385  0.00  0.00    -0.000 A 
ATOM     64  CD1 PHE A   2     -22.649 -14.212 -25.719  0.00  0.00    -0.004 A 
ENDBRANCH  58  59
ENDBRANCH  46  58
ENDBRANCH  42  46
ENDBRANCH  41  43
BRANCH  41  65
ATOM     65  CB  ASP A   3     -15.703 -18.072 -26.810  0.00  0.00    +0.143 C 
BRANCH  65  66
ATOM     66  CG  ASP A   3     -15.195 -17.031 -27.821  0.00  0.00    +0.367 C 
ATOM     67  OD2 ASP A   3     -13.970 -17.020 -28.067  0.00  0.00    -0.246 OA
ATOM     68  OD1 ASP A   3     -15.984 -16.213 -28.347  0.00  0.00    -0.246 OA
ENDBRANCH  65  66
ENDBRANCH  41  65
ENDBRANCH  37  41
ENDBRANCH  36  39
ENDBRANCH   1  36
TORSDOF 24
REMARK  Name = ../refined-set-2016/2r5a/2r5a_pocket.pdb
REMARK  91 active torsions:
REMARK  status: ('A' for Active; 'I' for Inactive)
REMARK    1  A    between atoms: _1  and  _3
REMARK    2  A    between atoms: _3  and  _4
REMARK    3  A    between atoms: _7  and  _9
REMARK    4  A    between atoms: _9  and  _10
REMARK    5  A    between atoms: _9  and  _12
REMARK    6  A    between atoms: _15  and  _17
REMARK    7  A    between atoms: _17  and  _18
REMARK    8  A    between atoms: _17  and  _20
REMARK    9  A    between atoms: _20  and  _21
REMARK   10  A    between atoms: _24  and  _26
REMARK   11  A    between atoms: _26  and  _27
REMARK   12  A    between atoms: _26  and  _29
REMARK   13  A    between atoms: _29  and  _30
REMARK   14  A    between atoms: _30  and  _31
REMARK   15  A    between atoms: _31  and  _32
REMARK   16  A    between atoms: _32  and  _33
REMARK   17  A    between atoms: _37  and  _39
REMARK   18  A    between atoms: _39  and  _40
REMARK   19  A    between atoms: _39  and  _42
REMARK   20  A    between atoms: _42  and  _43
REMARK   21  A    between atoms: _43  and  _44
REMARK   22  A    between atoms: _44  and  _45
REMARK   23  A    between atoms: _45  and  _46
REMARK   24  A    between atoms: _50  and  _52
REMARK   25  A    between atoms: _52  and  _53
REMARK   26  A    between atoms: _52  and  _55
REMARK   27  A    between atoms: _55  and  _56
REMARK   28  A    between atoms: _61  and  _63
REMARK   29  A    between atoms: _63  and  _64
REMARK   30  A    between atoms: _63  and  _66
REMARK   31  A    between atoms: _66  and  _67
REMARK   32  A    between atoms: _70  and  _72
REMARK   33  A    between atoms: _72  and  _73
REMARK   34  A    between atoms: _72  and  _75
REMARK   35  A    between atoms: _75  and  _76
REMARK   36  A    between atoms: _79  and  _81
REMARK   37  A    between atoms: _81  and  _82
REMARK   38  A    between atoms: _81  and  _84
REMARK   39  A    between atoms: _86  and  _88
REMARK   40  A    between atoms: _88  and  _89
REMARK   41  A    between atoms: _88  and  _91
REMARK   42  A    between atoms: _93  and  _95
REMARK   43  A    between atoms: _95  and  _96
REMARK   44  A    between atoms: _99  and  _101
REMARK   45  A    between atoms: _101  and  _102
REMARK   46  A    between atoms: _101  and  _104
REMARK   47  A    between atoms: _104  and  _105
REMARK   48  A    between atoms: _108  and  _110
REMARK   49  A    between atoms: _110  and  _111
REMARK   50  A    between atoms: _110  and  _113
REMARK   51  A    between atoms: _113  and  _114
REMARK   52  A    between atoms: _120  and  _122
REMARK   53  A    between atoms: _122  and  _123
REMARK   54  A    between atoms: _122  and  _125
REMARK   55  A    between atoms: _125  and  _126
REMARK   56  A    between atoms: _129  and  _131
REMARK   57  A    between atoms: _131  and  _132
REMARK   58  A    between atoms: _134  and  _136
REMARK   59  A    between atoms: _136  and  _137
REMARK   60  A    between atoms: _136  and  _139
REMARK   61  A    between atoms: _139  and  _140
REMARK   62  A    between atoms: _150  and  _152
REMARK   63  A    between atoms: _152  and  _153
REMARK   64  A    between atoms: _152  and  _155
REMARK   65  A    between atoms: _155  and  _156
REMARK   66  A    between atoms: _156  and  _157
REMARK   67  A    between atoms: _157  and  _158
REMARK   68  A    between atoms: _167  and  _169
REMARK   69  A    between atoms: _169  and  _170
REMARK   70  A    between atoms: _173  and  _175
REMARK   71  A    between atoms: _175  and  _176
REMARK   72  A    between atoms: _175  and  _178
REMARK   73  A    between atoms: _178  and  _179
REMARK   74  A    between atoms: _185  and  _187
REMARK   75  A    between atoms: _187  and  _188
REMARK   76  A    between atoms: _187  and  _190
REMARK   77  A    between atoms: _190  and  _191
REMARK   78  A    between atoms: _194  and  _196
REMARK   79  A    between atoms: _196  and  _197
REMARK   80  A    between atoms: _196  and  _199
REMARK   81  A    between atoms: _199  and  _200
REMARK   82  A    between atoms: _205  and  _206
REMARK   83  A    between atoms: _208  and  _210
REMARK   84  A    between atoms: _210  and  _211
REMARK   85  A    between atoms: _210  and  _213
REMARK   86  A    between atoms: _213  and  _214
REMARK   87  A    between atoms: _214  and  _215
REMARK   88  A    between atoms: _221  and  _222
REMARK   89  A    between atoms: _228  and  _229
REMARK   90  A    between atoms: _234  and  _236
REMARK   91  A    between atoms: _236  and  _237
REMARK                            x       y       z     vdW  Elec       q    Type
REMARK                         _______ _______ _______ _____ _____    ______ ____
ROOT
ATOM      1  CA  ASP A   3     -25.810 -14.217 -28.997  0.00  0.00    +0.160 C 
ENDROOT
BRANCH   1   4
ATOM      2  C   PHE A   2     -26.152 -14.989 -26.691  0.00  0.00    +0.241 C 
ATOM      3  O   PHE A   2     -25.802 -13.918 -26.213  0.00  0.00    -0.273 OA
ATOM      4  N   ASP A   3     -26.180 -15.227 -28.004  0.00  0.00    -0.297 N 
ATOM      5  H   ASP A   3     -26.476 -16.167 -28.335  0.00  0.00    +0.150 HD
BRANCH   2   6
ATOM      6  CA  PHE A   2     -26.621 -16.120 -25.784  0.00  0.00    +0.153 C 
BRANCH   6   9
ATOM      7  C   ALA A   1     -28.284 -17.557 -26.807  0.00  0.00    +0.238 C 
ATOM      8  O   ALA A   1     -29.207 -16.846 -26.406  0.00  0.00    -0.274 OA
ATOM      9  N   PHE A   2     -27.005 -17.284 -26.565  0.00  0.00    -0.297 N 
ATOM     10  H   PHE A   2     -26.268 -17.914 -26.941  0.00  0.00    +0.150 HD
BRANCH   7  11
ATOM     11  CA  ALA A   1     -28.577 -18.819 -27.614  0.00  0.00    +0.145 C 
ATOM     12  CB  ALA A   1     -29.055 -19.931 -26.692  0.00  0.00    +0.028 C 
BRANCH  11  13
ATOM     13  N   ALA A   1     -27.423 -19.267 -28.400  0.00  0.00    -0.238 NA
ATOM     14  H   ALA A   1     -26.917 -20.122 -28.093  0.00  0.00    +0.142 HD
ENDBRANCH  11  13
ENDBRANCH   7  11
ENDBRANCH   6   9
BRANCH   6  15
ATOM     15  CB  PHE A   2     -25.580 -16.502 -24.722  0.00  0.00    +0.055 C 
BRANCH  15  16
ATOM     16  CG  PHE A   2     -26.110 -17.461 -23.677  0.00  0.00    -0.020 A 
ATOM     17  CD2 PHE A   2     -26.870 -16.998 -22.609  0.00  0.00    -0.004 A 
ATOM     18  CE2 PHE A   2     -27.376 -17.878 -21.656  0.00  0.00    -0.000 A 
ATOM     19  CZ  PHE A   2     -27.127 -19.240 -21.759  0.00  0.00    -0.000 A 
ATOM     20  CE1 PHE A   2     -26.378 -19.722 -22.830  0.00  0.00    -0.000 A 
ATOM     21  CD1 PHE A   2     -25.875 -18.832 -23.782  0.00  0.00    -0.004 A 
ENDBRANCH  15  16
ENDBRANCH   6  15
ENDBRANCH   2   6
ENDBRANCH   1   4
BRANCH   1  22
ATOM     22  C   ASP A   3     -26.784 -13.049 -29.007  0.00  0.00    +0.241 C 
ATOM     23  O   ASP A   3     -27.957 -13.204 -28.674  0.00  0.00    -0.273 OA
ATOM     24  N   TYR A   4     -26.297 -11.886 -29.422  0.00  0.00    -0.298 N 
ATOM     25  H   TYR A   4     -25.272 -11.791 -29.571  0.00  0.00    +0.150 HD
BRANCH  24  26
ATOM     26  CA  TYR A   4     -27.159 -10.741 -29.674  0.00  0.00    +0.141 C 
BRANCH  26  27
ATOM     27  C   TYR A   4     -26.515  -9.736 -30.602  0.00  0.00    +0.227 C 
ATOM     28  O   TYR A   4     -25.296  -9.699 -30.728  0.00  0.00    -0.286 OA
ENDBRANCH  26  27
BRANCH  26  29
ATOM     29  CB  TYR A   4     -27.573 -10.044 -28.367  0.00  0.00    +0.054 C 
BRANCH  29  30
ATOM     30  CG  TYR A   4     -26.443  -9.541 -27.467  0.00  0.00    -0.020 A 
ATOM     31  CD2 TYR A   4     -26.064 -10.259 -26.329  0.00  0.00    -0.001 A 
ATOM     32  CE2 TYR A   4     -25.050  -9.798 -25.481  0.00  0.00    +0.036 A 
ATOM     33  CZ  TYR A   4     -24.418  -8.588 -25.749  0.00  0.00    +0.134 A 
ATOM     34  CE1 TYR A   4     -24.783  -7.853 -26.878  0.00  0.00    +0.036 A 
ATOM     35  CD1 TYR A   4     -25.800  -8.322 -27.714  0.00  0.00    -0.001 A 
BRANCH  33  36
ATOM     36  OH  TYR A   4     -23.413  -8.131 -24.888  0.00  0.00    -0.506 OA
ATOM     37  HH  TYR A   4     -23.786  -8.016 -23.978  0.00  0.00    +0.292 HD
ENDBRANCH  33  36
ENDBRANCH  29  30
ENDBRANCH  26  29
ENDBRANCH  24  26
ENDBRANCH   1  22
BRANCH   1  38
ATOM     38  CB  ASP A   3     -25.798 -14.820 -30.412  0.00  0.00    +0.143 C 
BRANCH  38  39
ATOM     39  CG  ASP A   3     -24.747 -15.891 -30.591  0.00  0.00    +0.367 C 
ATOM     40  OD2 ASP A   3     -23.958 -16.119 -29.649  0.00  0.00    -0.246 OA
ATOM     41  OD1 ASP A   3     -24.718 -16.506 -31.675  0.00  0.00    -0.246 OA
ENDBRANCH  38  39
ENDBRANCH   1  38
TORSDOF 15
REMARK  Name = ../refined-set-2016/2r5a/2r5a_pocket.pdb
REMARK  91 active torsions:
REMARK  status: ('A' for Active; 'I' for Inactive)
REMARK    1  A    between atoms: _1  and  _3
REMARK    2  A    between atoms: _3  and  _4
REMARK    3  A    between atoms: _7  and  _9
REMARK    4  A    between atoms: _9  and  _10
REMARK    5  A    between atoms: _9  and  _12
REMARK    6  A    between atoms: _15  and  _17
REMARK    7  A    between atoms: _17  and  _18
REMARK    8  A    between atoms: _17  and  _20
REMARK    9  A    between atoms: _20  and  _21
REMARK   10  A    between atoms: _24  and  _26
REMARK   11  A    between atoms: _26  and  _27
REMARK   12  A    between atoms: _26  and  _29
REMARK   13  A    between atoms: _29  and  _30
REMARK   14  A    between atoms: _30  and  _31
REMARK   15  A    between atoms: _31  and  _32
REMARK   16  A    between atoms: _32  and  _33
REMARK   17  A    between atoms: _37  and  _39
REMARK   18  A    between atoms: _39  and  _40
REMARK   19  A    between atoms: _39  and  _42
REMARK   20  A    between atoms: _42  and  _43
REMARK   21  A    between atoms: _43  and  _44
REMARK   22  A    between atoms: _44  and  _45
REMARK   23  A    between atoms: _45  and  _46
REMARK   24  A    between atoms: _50  and  _52
REMARK   25  A    between atoms: _52  and  _53
REMARK   26  A    between atoms: _52  and  _55
REMARK   27  A    between atoms: _55  and  _56
REMARK   28  A    between atoms: _61  and  _63
REMARK   29  A    between atoms: _63  and  _64
REMARK   30  A    between atoms: _63  and  _66
REMARK   31  A    between atoms: _66  and  _67
REMARK   32  A    between atoms: _70  and  _72
REMARK   33  A    between atoms: _72  and  _73
REMARK   34  A    between atoms: _72  and  _75
REMARK   35  A    between atoms: _75  and  _76
REMARK   36  A    between atoms: _79  and  _81
REMARK   37  A    between atoms: _81  and  _82
REMARK   38  A    between atoms: _81  and  _84
REMARK   39  A    between atoms: _86  and  _88
REMARK   40  A    between atoms: _88  and  _89
REMARK   41  A    between atoms: _88  and  _91
REMARK   42  A    between atoms: _93  and  _95
REMARK   43  A    between atoms: _95  and  _96
REMARK   44  A    between atoms: _99  and  _101
REMARK   45  A    between atoms: _101  and  _102
REMARK   46  A    between atoms: _101  and  _104
REMARK   47  A    between atoms: _104  and  _105
REMARK   48  A    between atoms: _108  and  _110
REMARK   49  A    between atoms: _110  and  _111
REMARK   50  A    between atoms: _110  and  _113
REMARK   51  A    between atoms: _113  and  _114
REMARK   52  A    between atoms: _120  and  _122
REMARK   53  A    between atoms: _122  and  _123
REMARK   54  A    between atoms: _122  and  _125
REMARK   55  A    between atoms: _125  and  _126
REMARK   56  A    between atoms: _129  and  _131
REMARK   57  A    between atoms: _131  and  _132
REMARK   58  A    between atoms: _134  and  _136
REMARK   59  A    between atoms: _136  and  _137
REMARK   60  A    between atoms: _136  and  _139
REMARK   61  A    between atoms: _139  and  _140
REMARK   62  A    between atoms: _150  and  _152
REMARK   63  A    between atoms: _152  and  _153
REMARK   64  A    between atoms: _152  and  _155
REMARK   65  A    between atoms: _155  and  _156
REMARK   66  A    between atoms: _156  and  _157
REMARK   67  A    between atoms: _157  and  _158
REMARK   68  A    between atoms: _167  and  _169
REMARK   69  A    between atoms: _169  and  _170
REMARK   70  A    between atoms: _173  and  _175
REMARK   71  A    between atoms: _175  and  _176
REMARK   72  A    between atoms: _175  and  _178
REMARK   73  A    between atoms: _178  and  _179
REMARK   74  A    between atoms: _185  and  _187
REMARK   75  A    between atoms: _187  and  _188
REMARK   76  A    between atoms: _187  and  _190
REMARK   77  A    between atoms: _190  and  _191
REMARK   78  A    between atoms: _194  and  _196
REMARK   79  A    between atoms: _196  and  _197
REMARK   80  A    between atoms: _196  and  _199
REMARK   81  A    between atoms: _199  and  _200
REMARK   82  A    between atoms: _205  and  _206
REMARK   83  A    between atoms: _208  and  _210
REMARK   84  A    between atoms: _210  and  _211
REMARK   85  A    between atoms: _210  and  _213
REMARK   86  A    between atoms: _213  and  _214
REMARK   87  A    between atoms: _214  and  _215
REMARK   88  A    between atoms: _221  and  _222
REMARK   89  A    between atoms: _228  and  _229
REMARK   90  A    between atoms: _234  and  _236
REMARK   91  A    between atoms: _236  and  _237
REMARK                            x       y       z     vdW  Elec       q    Type
REMARK                         _______ _______ _______ _____ _____    ______ ____
ROOT
ATOM      1  C   GLN A   1     -15.184 -16.139 -18.915  0.00  0.00    +0.241 C 
ATOM      2  N   PRO A   2     -14.447 -17.247 -18.699  0.00  0.00    -0.272 N 
ATOM      3  CD  PRO A   2     -14.227 -17.896 -17.387  0.00  0.00    +0.094 C 
ATOM      4  CG  PRO A   2     -13.647 -19.247 -17.745  0.00  0.00    +0.024 C 
ATOM      5  CB  PRO A   2     -12.927 -19.008 -19.054  0.00  0.00    +0.031 C 
ATOM      6  CA  PRO A   2     -13.759 -17.942 -19.787  0.00  0.00    +0.152 C 
ATOM      7  O   GLN A   1     -15.209 -15.543 -20.008  0.00  0.00    -0.273 OA
ENDROOT
BRANCH   6   8
ATOM      8  C   PRO A   2     -14.785 -18.595 -20.727  0.00  0.00    +0.244 C 
ATOM      9  O   PRO A   2     -15.972 -18.638 -20.384  0.00  0.00    -0.273 OA
ATOM     10  N   PRO A   3     -14.353 -19.064 -21.918  0.00  0.00    -0.272 N 
ATOM     11  CD  PRO A   3     -13.007 -18.929 -22.512  0.00  0.00    +0.094 C 
ATOM     12  CG  PRO A   3     -13.127 -19.630 -23.840  0.00  0.00    +0.024 C 
ATOM     13  CB  PRO A   3     -14.354 -20.434 -23.845  0.00  0.00    +0.031 C 
ATOM     14  CA  PRO A   3     -15.282 -19.775 -22.812  0.00  0.00    +0.152 C 
BRANCH  14  15
ATOM     15  C   PRO A   3     -16.090 -20.871 -22.112  0.00  0.00    +0.241 C 
ATOM     16  O   PRO A   3     -15.616 -21.489 -21.149  0.00  0.00    -0.273 OA
ATOM     17  N   GLY A   4     -17.297 -21.118 -22.609  0.00  0.00    -0.296 N 
ATOM     18  H   GLY A   4     -17.696 -20.475 -23.322  0.00  0.00    +0.150 HD
BRANCH  17  19
ATOM     19  CA  GLY A   4     -18.074 -22.276 -22.172  0.00  0.00    +0.163 C 
BRANCH  19  20
ATOM     20  C   GLY A   4     -17.455 -23.609 -22.576  0.00  0.00    +0.229 C 
ATOM     21  O   GLY A   4     -16.593 -23.673 -23.459  0.00  0.00    -0.286 OA
ENDBRANCH  19  20
ENDBRANCH  17  19
ENDBRANCH  14  15
ENDBRANCH   6   8
BRANCH   1  22
ATOM     22  CA  GLN A   1     -15.994 -15.623 -17.725  0.00  0.00    +0.145 C 
BRANCH  22  23
ATOM     23  N   GLN A   1     -15.729 -14.218 -17.434  0.00  0.00    -0.238 NA
ATOM     24  H   GLN A   1     -16.431 -13.498 -17.698  0.00  0.00    +0.142 HD
ENDBRANCH  22  23
BRANCH  22  25
ATOM     25  CB  GLN A   1     -17.485 -15.876 -17.949  0.00  0.00    +0.036 C 
BRANCH  25  26
ATOM     26  CG  GLN A   1     -18.399 -15.332 -16.852  0.00  0.00    +0.087 C 
BRANCH  26  27
ATOM     27  CD  GLN A   1     -17.998 -15.756 -15.444  0.00  0.00    +0.219 C 
ATOM     28  OE1 GLN A   1     -17.780 -14.904 -14.567  0.00  0.00    -0.275 OA
ATOM     29  NE2 GLN A   1     -17.914 -17.069 -15.212  0.00  0.00    -0.329 N 
ATOM     30 HE21 GLN A   1     -17.657 -17.414 -14.265  0.00  0.00    +0.145 HD
ATOM     31 HE22 GLN A   1     -18.106 -17.746 -15.978  0.00  0.00    +0.145 HD
ENDBRANCH  26  27
ENDBRANCH  25  26
ENDBRANCH  22  25
ENDBRANCH   1  22
TORSDOF 9
REMARK  Name = ../refined-set-2016/2r5a/2r5a_pocket.pdb
REMARK  91 active torsions:
REMARK  status: ('A' for Active; 'I' for Inactive)
REMARK    1  A    between atoms: _1  and  _3
REMARK    2  A    between atoms: _3  and  _4
REMARK    3  A    between atoms: _7  and  _9
REMARK    4  A    between atoms: _9  and  _10
REMARK    5  A    between atoms: _9  and  _12
REMARK    6  A    between atoms: _15  and  _17
REMARK    7  A    between atoms: _17  and  _18
REMARK    8  A    between atoms: _17  and  _20
REMARK    9  A    between atoms: _20  and  _21
REMARK   10  A    between atoms: _24  and  _26
REMARK   11  A    between atoms: _26  and  _27
REMARK   12  A    between atoms: _26  and  _29
REMARK   13  A    between atoms: _29  and  _30
REMARK   14  A    between atoms: _30  and  _31
REMARK   15  A    between atoms: _31  and  _32
REMARK   16  A    between atoms: _32  and  _33
REMARK   17  A    between atoms: _37  and  _39
REMARK   18  A    between atoms: _39  and  _40
REMARK   19  A    between atoms: _39  and  _42
REMARK   20  A    between atoms: _42  and  _43
REMARK   21  A    between atoms: _43  and  _44
REMARK   22  A    between atoms: _44  and  _45
REMARK   23  A    between atoms: _45  and  _46
REMARK   24  A    between atoms: _50  and  _52
REMARK   25  A    between atoms: _52  and  _53
REMARK   26  A    between atoms: _52  and  _55
REMARK   27  A    between atoms: _55  and  _56
REMARK   28  A    between atoms: _61  and  _63
REMARK   29  A    between atoms: _63  and  _64
REMARK   30  A    between atoms: _63  and  _66
REMARK   31  A    between atoms: _66  and  _67
REMARK   32  A    between atoms: _70  and  _72
REMARK   33  A    between atoms: _72  and  _73
REMARK   34  A    between atoms: _72  and  _75
REMARK   35  A    between atoms: _75  and  _76
REMARK   36  A    between atoms: _79  and  _81
REMARK   37  A    between atoms: _81  and  _82
REMARK   38  A    between atoms: _81  and  _84
REMARK   39  A    between atoms: _86  and  _88
REMARK   40  A    between atoms: _88  and  _89
REMARK   41  A    between atoms: _88  and  _91
REMARK   42  A    between atoms: _93  and  _95
REMARK   43  A    between atoms: _95  and  _96
REMARK   44  A    between atoms: _99  and  _101
REMARK   45  A    between atoms: _101  and  _102
REMARK   46  A    between atoms: _101  and  _104
REMARK   47  A    between atoms: _104  and  _105
REMARK   48  A    between atoms: _108  and  _110
REMARK   49  A    between atoms: _110  and  _111
REMARK   50  A    between atoms: _110  and  _113
REMARK   51  A    between atoms: _113  and  _114
REMARK   52  A    between atoms: _120  and  _122
REMARK   53  A    between atoms: _122  and  _123
REMARK   54  A    between atoms: _122  and  _125
REMARK   55  A    between atoms: _125  and  _126
REMARK   56  A    between atoms: _129  and  _131
REMARK   57  A    between atoms: _131  and  _132
REMARK   58  A    between atoms: _134  and  _136
REMARK   59  A    between atoms: _136  and  _137
REMARK   60  A    between atoms: _136  and  _139
REMARK   61  A    between atoms: _139  and  _140
REMARK   62  A    between atoms: _150  and  _152
REMARK   63  A    between atoms: _152  and  _153
REMARK   64  A    between atoms: _152  and  _155
REMARK   65  A    between atoms: _155  and  _156
REMARK   66  A    between atoms: _156  and  _157
REMARK   67  A    between atoms: _157  and  _158
REMARK   68  A    between atoms: _167  and  _169
REMARK   69  A    between atoms: _169  and  _170
REMARK   70  A    between atoms: _173  and  _175
REMARK   71  A    between atoms: _175  and  _176
REMARK   72  A    between atoms: _175  and  _178
REMARK   73  A    between atoms: _178  and  _179
REMARK   74  A    between atoms: _185  and  _187
REMARK   75  A    between atoms: _187  and  _188
REMARK   76  A    between atoms: _187  and  _190
REMARK   77  A    between atoms: _190  and  _191
REMARK   78  A    between atoms: _194  and  _196
REMARK   79  A    between atoms: _196  and  _197
REMARK   80  A    between atoms: _196  and  _199
REMARK   81  A    between atoms: _199  and  _200
REMARK   82  A    between atoms: _205  and  _206
REMARK   83  A    between atoms: _208  and  _210
REMARK   84  A    between atoms: _210  and  _211
REMARK   85  A    between atoms: _210  and  _213
REMARK   86  A    between atoms: _213  and  _214
REMARK   87  A    between atoms: _214  and  _215
REMARK   88  A    between atoms: _221  and  _222
REMARK   89  A    between atoms: _228  and  _229
REMARK   90  A    between atoms: _234  and  _236
REMARK   91  A    between atoms: _236  and  _237
REMARK                            x       y       z     vdW  Elec       q    Type
REMARK                         _______ _______ _______ _____ _____    ______ ____
ROOT
ATOM      1  O   HOH     1     -18.051 -16.942 -23.426  0.00  0.00    +0.000 OA
ENDROOT
TORSDOF 0
REMARK  Name = ../refined-set-2016/2r5a/2r5a_pocket.pdb
REMARK  91 active torsions:
REMARK  status: ('A' for Active; 'I' for Inactive)
REMARK    1  A    between atoms: _1  and  _3
REMARK    2  A    between atoms: _3  and  _4
REMARK    3  A    between atoms: _7  and  _9
REMARK    4  A    between atoms: _9  and  _10
REMARK    5  A    between atoms: _9  and  _12
REMARK    6  A    between atoms: _15  and  _17
REMARK    7  A    between atoms: _17  and  _18
REMARK    8  A    between atoms: _17  and  _20
REMARK    9  A    between atoms: _20  and  _21
REMARK   10  A    between atoms: _24  and  _26
REMARK   11  A    between atoms: _26  and  _27
REMARK   12  A    between atoms: _26  and  _29
REMARK   13  A    between atoms: _29  and  _30
REMARK   14  A    between atoms: _30  and  _31
REMARK   15  A    between atoms: _31  and  _32
REMARK   16  A    between atoms: _32  and  _33
REMARK   17  A    between atoms: _37  and  _39
REMARK   18  A    between atoms: _39  and  _40
REMARK   19  A    between atoms: _39  and  _42
REMARK   20  A    between atoms: _42  and  _43
REMARK   21  A    between atoms: _43  and  _44
REMARK   22  A    between atoms: _44  and  _45
REMARK   23  A    between atoms: _45  and  _46
REMARK   24  A    between atoms: _50  and  _52
REMARK   25  A    between atoms: _52  and  _53
REMARK   26  A    between atoms: _52  and  _55
REMARK   27  A    between atoms: _55  and  _56
REMARK   28  A    between atoms: _61  and  _63
REMARK   29  A    between atoms: _63  and  _64
REMARK   30  A    between atoms: _63  and  _66
REMARK   31  A    between atoms: _66  and  _67
REMARK   32  A    between atoms: _70  and  _72
REMARK   33  A    between atoms: _72  and  _73
REMARK   34  A    between atoms: _72  and  _75
REMARK   35  A    between atoms: _75  and  _76
REMARK   36  A    between atoms: _79  and  _81
REMARK   37  A    between atoms: _81  and  _82
REMARK   38  A    between atoms: _81  and  _84
REMARK   39  A    between atoms: _86  and  _88
REMARK   40  A    between atoms: _88  and  _89
REMARK   41  A    between atoms: _88  and  _91
REMARK   42  A    between atoms: _93  and  _95
REMARK   43  A    between atoms: _95  and  _96
REMARK   44  A    between atoms: _99  and  _101
REMARK   45  A    between atoms: _101  and  _102
REMARK   46  A    between atoms: _101  and  _104
REMARK   47  A    between atoms: _104  and  _105
REMARK   48  A    between atoms: _108  and  _110
REMARK   49  A    between atoms: _110  and  _111
REMARK   50  A    between atoms: _110  and  _113
REMARK   51  A    between atoms: _113  and  _114
REMARK   52  A    between atoms: _120  and  _122
REMARK   53  A    between atoms: _122  and  _123
REMARK   54  A    between atoms: _122  and  _125
REMARK   55  A    between atoms: _125  and  _126
REMARK   56  A    between atoms: _129  and  _131
REMARK   57  A    between atoms: _131  and  _132
REMARK   58  A    between atoms: _134  and  _136
REMARK   59  A    between atoms: _136  and  _137
REMARK   60  A    between atoms: _136  and  _139
REMARK   61  A    between atoms: _139  and  _140
REMARK   62  A    between atoms: _150  and  _152
REMARK   63  A    between atoms: _152  and  _153
REMARK   64  A    between atoms: _152  and  _155
REMARK   65  A    between atoms: _155  and  _156
REMARK   66  A    between atoms: _156  and  _157
REMARK   67  A    between atoms: _157  and  _158
REMARK   68  A    between atoms: _167  and  _169
REMARK   69  A    between atoms: _169  and  _170
REMARK   70  A    between atoms: _173  and  _175
REMARK   71  A    between atoms: _175  and  _176
REMARK   72  A    between atoms: _175  and  _178
REMARK   73  A    between atoms: _178  and  _179
REMARK   74  A    between atoms: _185  and  _187
REMARK   75  A    between atoms: _187  and  _188
REMARK   76  A    between atoms: _187  and  _190
REMARK   77  A    between atoms: _190  and  _191
REMARK   78  A    between atoms: _194  and  _196
REMARK   79  A    between atoms: _196  and  _197
REMARK   80  A    between atoms: _196  and  _199
REMARK   81  A    between atoms: _199  and  _200
REMARK   82  A    between atoms: _205  and  _206
REMARK   83  A    between atoms: _208  and  _210
REMARK   84  A    between atoms: _210  and  _211
REMARK   85  A    between atoms: _210  and  _213
REMARK   86  A    between atoms: _213  and  _214
REMARK   87  A    between atoms: _214  and  _215
REMARK   88  A    between atoms: _221  and  _222
REMARK   89  A    between atoms: _228  and  _229
REMARK   90  A    between atoms: _234  and  _236
REMARK   91  A    between atoms: _236  and  _237
REMARK                            x       y       z     vdW  Elec       q    Type
REMARK                         _______ _______ _______ _____ _____    ______ ____
ROOT
ATOM      1  O   HOH     1     -26.517 -12.774 -23.841  0.00  0.00    +0.000 OA
ENDROOT
TORSDOF 0
REMARK  Name = ../refined-set-2016/2r5a/2r5a_pocket.pdb
REMARK  91 active torsions:
REMARK  status: ('A' for Active; 'I' for Inactive)
REMARK    1  A    between atoms: _1  and  _3
REMARK    2  A    between atoms: _3  and  _4
REMARK    3  A    between atoms: _7  and  _9
REMARK    4  A    between atoms: _9  and  _10
REMARK    5  A    between atoms: _9  and  _12
REMARK    6  A    between atoms: _15  and  _17
REMARK    7  A    between atoms: _17  and  _18
REMARK    8  A    between atoms: _17  and  _20
REMARK    9  A    between atoms: _20  and  _21
REMARK   10  A    between atoms: _24  and  _26
REMARK   11  A    between atoms: _26  and  _27
REMARK   12  A    between atoms: _26  and  _29
REMARK   13  A    between atoms: _29  and  _30
REMARK   14  A    between atoms: _30  and  _31
REMARK   15  A    between atoms: _31  and  _32
REMARK   16  A    between atoms: _32  and  _33
REMARK   17  A    between atoms: _37  and  _39
REMARK   18  A    between atoms: _39  and  _40
REMARK   19  A    between atoms: _39  and  _42
REMARK   20  A    between atoms: _42  and  _43
REMARK   21  A    between atoms: _43  and  _44
REMARK   22  A    between atoms: _44  and  _45
REMARK   23  A    between atoms: _45  and  _46
REMARK   24  A    between atoms: _50  and  _52
REMARK   25  A    between atoms: _52  and  _53
REMARK   26  A    between atoms: _52  and  _55
REMARK   27  A    between atoms: _55  and  _56
REMARK   28  A    between atoms: _61  and  _63
REMARK   29  A    between atoms: _63  and  _64
REMARK   30  A    between atoms: _63  and  _66
REMARK   31  A    between atoms: _66  and  _67
REMARK   32  A    between atoms: _70  and  _72
REMARK   33  A    between atoms: _72  and  _73
REMARK   34  A    between atoms: _72  and  _75
REMARK   35  A    between atoms: _75  and  _76
REMARK   36  A    between atoms: _79  and  _81
REMARK   37  A    between atoms: _81  and  _82
REMARK   38  A    between atoms: _81  and  _84
REMARK   39  A    between atoms: _86  and  _88
REMARK   40  A    between atoms: _88  and  _89
REMARK   41  A    between atoms: _88  and  _91
REMARK   42  A    between atoms: _93  and  _95
REMARK   43  A    between atoms: _95  and  _96
REMARK   44  A    between atoms: _99  and  _101
REMARK   45  A    between atoms: _101  and  _102
REMARK   46  A    between atoms: _101  and  _104
REMARK   47  A    between atoms: _104  and  _105
REMARK   48  A    between atoms: _108  and  _110
REMARK   49  A    between atoms: _110  and  _111
REMARK   50  A    between atoms: _110  and  _113
REMARK   51  A    between atoms: _113  and  _114
REMARK   52  A    between atoms: _120  and  _122
REMARK   53  A    between atoms: _122  and  _123
REMARK   54  A    between atoms: _122  and  _125
REMARK   55  A    between atoms: _125  and  _126
REMARK   56  A    between atoms: _129  and  _131
REMARK   57  A    between atoms: _131  and  _132
REMARK   58  A    between atoms: _134  and  _136
REMARK   59  A    between atoms: _136  and  _137
REMARK   60  A    between atoms: _136  and  _139
REMARK   61  A    between atoms: _139  and  _140
REMARK   62  A    between atoms: _150  and  _152
REMARK   63  A    between atoms: _152  and  _153
REMARK   64  A    between atoms: _152  and  _155
REMARK   65  A    between atoms: _155  and  _156
REMARK   66  A    between atoms: _156  and  _157
REMARK   67  A    between atoms: _157  and  _158
REMARK   68  A    between atoms: _167  and  _169
REMARK   69  A    between atoms: _169  and  _170
REMARK   70  A    between atoms: _173  and  _175
REMARK   71  A    between atoms: _175  and  _176
REMARK   72  A    between atoms: _175  and  _178
REMARK   73  A    between atoms: _178  and  _179
REMARK   74  A    between atoms: _185  and  _187
REMARK   75  A    between atoms: _187  and  _188
REMARK   76  A    between atoms: _187  and  _190
REMARK   77  A    between atoms: _190  and  _191
REMARK   78  A    between atoms: _194  and  _196
REMARK   79  A    between atoms: _196  and  _197
REMARK   80  A    between atoms: _196  and  _199
REMARK   81  A    between atoms: _199  and  _200
REMARK   82  A    between atoms: _205  and  _206
REMARK   83  A    between atoms: _208  and  _210
REMARK   84  A    between atoms: _210  and  _211
REMARK   85  A    between atoms: _210  and  _213
REMARK   86  A    between atoms: _213  and  _214
REMARK   87  A    between atoms: _214  and  _215
REMARK   88  A    between atoms: _221  and  _222
REMARK   89  A    between atoms: _228  and  _229
REMARK   90  A    between atoms: _234  and  _236
REMARK   91  A    between atoms: _236  and  _237
REMARK                            x       y       z     vdW  Elec       q    Type
REMARK                         _______ _______ _______ _____ _____    ______ ____
ROOT
ATOM      1  O   HOH     1     -18.399 -17.460 -20.831  0.00  0.00    +0.000 OA
ENDROOT
TORSDOF 0
REMARK  Name = ../refined-set-2016/2r5a/2r5a_pocket.pdb
REMARK  91 active torsions:
REMARK  status: ('A' for Active; 'I' for Inactive)
REMARK    1  A    between atoms: _1  and  _3
REMARK    2  A    between atoms: _3  and  _4
REMARK    3  A    between atoms: _7  and  _9
REMARK    4  A    between atoms: _9  and  _10
REMARK    5  A    between atoms: _9  and  _12
REMARK    6  A    between atoms: _15  and  _17
REMARK    7  A    between atoms: _17  and  _18
REMARK    8  A    between atoms: _17  and  _20
REMARK    9  A    between atoms: _20  and  _21
REMARK   10  A    between atoms: _24  and  _26
REMARK   11  A    between atoms: _26  and  _27
REMARK   12  A    between atoms: _26  and  _29
REMARK   13  A    between atoms: _29  and  _30
REMARK   14  A    between atoms: _30  and  _31
REMARK   15  A    between atoms: _31  and  _32
REMARK   16  A    between atoms: _32  and  _33
REMARK   17  A    between atoms: _37  and  _39
REMARK   18  A    between atoms: _39  and  _40
REMARK   19  A    between atoms: _39  and  _42
REMARK   20  A    between atoms: _42  and  _43
REMARK   21  A    between atoms: _43  and  _44
REMARK   22  A    between atoms: _44  and  _45
REMARK   23  A    between atoms: _45  and  _46
REMARK   24  A    between atoms: _50  and  _52
REMARK   25  A    between atoms: _52  and  _53
REMARK   26  A    between atoms: _52  and  _55
REMARK   27  A    between atoms: _55  and  _56
REMARK   28  A    between atoms: _61  and  _63
REMARK   29  A    between atoms: _63  and  _64
REMARK   30  A    between atoms: _63  and  _66
REMARK   31  A    between atoms: _66  and  _67
REMARK   32  A    between atoms: _70  and  _72
REMARK   33  A    between atoms: _72  and  _73
REMARK   34  A    between atoms: _72  and  _75
REMARK   35  A    between atoms: _75  and  _76
REMARK   36  A    between atoms: _79  and  _81
REMARK   37  A    between atoms: _81  and  _82
REMARK   38  A    between atoms: _81  and  _84
REMARK   39  A    between atoms: _86  and  _88
REMARK   40  A    between atoms: _88  and  _89
REMARK   41  A    between atoms: _88  and  _91
REMARK   42  A    between atoms: _93  and  _95
REMARK   43  A    between atoms: _95  and  _96
REMARK   44  A    between atoms: _99  and  _101
REMARK   45  A    between atoms: _101  and  _102
REMARK   46  A    between atoms: _101  and  _104
REMARK   47  A    between atoms: _104  and  _105
REMARK   48  A    between atoms: _108  and  _110
REMARK   49  A    between atoms: _110  and  _111
REMARK   50  A    between atoms: _110  and  _113
REMARK   51  A    between atoms: _113  and  _114
REMARK   52  A    between atoms: _120  and  _122
REMARK   53  A    between atoms: _122  and  _123
REMARK   54  A    between atoms: _122  and  _125
REMARK   55  A    between atoms: _125  and  _126
REMARK   56  A    between atoms: _129  and  _131
REMARK   57  A    between atoms: _131  and  _132
REMARK   58  A    between atoms: _134  and  _136
REMARK   59  A    between atoms: _136  and  _137
REMARK   60  A    between atoms: _136  and  _139
REMARK   61  A    between atoms: _139  and  _140
REMARK   62  A    between atoms: _150  and  _152
REMARK   63  A    between atoms: _152  and  _153
REMARK   64  A    between atoms: _152  and  _155
REMARK   65  A    between atoms: _155  and  _156
REMARK   66  A    between atoms: _156  and  _157
REMARK   67  A    between atoms: _157  and  _158
REMARK   68  A    between atoms: _167  and  _169
REMARK   69  A    between atoms: _169  and  _170
REMARK   70  A    between atoms: _173  and  _175
REMARK   71  A    between atoms: _175  and  _176
REMARK   72  A    between atoms: _175  and  _178
REMARK   73  A    between atoms: _178  and  _179
REMARK   74  A    between atoms: _185  and  _187
REMARK   75  A    between atoms: _187  and  _188
REMARK   76  A    between atoms: _187  and  _190
REMARK   77  A    between atoms: _190  and  _191
REMARK   78  A    between atoms: _194  and  _196
REMARK   79  A    between atoms: _196  and  _197
REMARK   80  A    between atoms: _196  and  _199
REMARK   81  A    between atoms: _199  and  _200
REMARK   82  A    between atoms: _205  and  _206
REMARK   83  A    between atoms: _208  and  _210
REMARK   84  A    between atoms: _210  and  _211
REMARK   85  A    between atoms: _210  and  _213
REMARK   86  A    between atoms: _213  and  _214
REMARK   87  A    between atoms: _214  and  _215
REMARK   88  A    between atoms: _221  and  _222
REMARK   89  A    between atoms: _228  and  _229
REMARK   90  A    between atoms: _234  and  _236
REMARK   91  A    between atoms: _236  and  _237
REMARK                            x       y       z     vdW  Elec       q    Type
REMARK                         _______ _______ _______ _____ _____    ______ ____
ROOT
ATOM      1  O   HOH     1     -17.955 -20.293 -18.613  0.00  0.00    +0.000 OA
ENDROOT
TORSDOF 0
REMARK  Name = ../refined-set-2016/2r5a/2r5a_pocket.pdb
REMARK  91 active torsions:
REMARK  status: ('A' for Active; 'I' for Inactive)
REMARK    1  A    between atoms: _1  and  _3
REMARK    2  A    between atoms: _3  and  _4
REMARK    3  A    between atoms: _7  and  _9
REMARK    4  A    between atoms: _9  and  _10
REMARK    5  A    between atoms: _9  and  _12
REMARK    6  A    between atoms: _15  and  _17
REMARK    7  A    between atoms: _17  and  _18
REMARK    8  A    between atoms: _17  and  _20
REMARK    9  A    between atoms: _20  and  _21
REMARK   10  A    between atoms: _24  and  _26
REMARK   11  A    between atoms: _26  and  _27
REMARK   12  A    between atoms: _26  and  _29
REMARK   13  A    between atoms: _29  and  _30
REMARK   14  A    between atoms: _30  and  _31
REMARK   15  A    between atoms: _31  and  _32
REMARK   16  A    between atoms: _32  and  _33
REMARK   17  A    between atoms: _37  and  _39
REMARK   18  A    between atoms: _39  and  _40
REMARK   19  A    between atoms: _39  and  _42
REMARK   20  A    between atoms: _42  and  _43
REMARK   21  A    between atoms: _43  and  _44
REMARK   22  A    between atoms: _44  and  _45
REMARK   23  A    between atoms: _45  and  _46
REMARK   24  A    between atoms: _50  and  _52
REMARK   25  A    between atoms: _52  and  _53
REMARK   26  A    between atoms: _52  and  _55
REMARK   27  A    between atoms: _55  and  _56
REMARK   28  A    between atoms: _61  and  _63
REMARK   29  A    between atoms: _63  and  _64
REMARK   30  A    between atoms: _63  and  _66
REMARK   31  A    between atoms: _66  and  _67
REMARK   32  A    between atoms: _70  and  _72
REMARK   33  A    between atoms: _72  and  _73
REMARK   34  A    between atoms: _72  and  _75
REMARK   35  A    between atoms: _75  and  _76
REMARK   36  A    between atoms: _79  and  _81
REMARK   37  A    between atoms: _81  and  _82
REMARK   38  A    between atoms: _81  and  _84
REMARK   39  A    between atoms: _86  and  _88
REMARK   40  A    between atoms: _88  and  _89
REMARK   41  A    between atoms: _88  and  _91
REMARK   42  A    between atoms: _93  and  _95
REMARK   43  A    between atoms: _95  and  _96
REMARK   44  A    between atoms: _99  and  _101
REMARK   45  A    between atoms: _101  and  _102
REMARK   46  A    between atoms: _101  and  _104
REMARK   47  A    between atoms: _104  and  _105
REMARK   48  A    between atoms: _108  and  _110
REMARK   49  A    between atoms: _110  and  _111
REMARK   50  A    between atoms: _110  and  _113
REMARK   51  A    between atoms: _113  and  _114
REMARK   52  A    between atoms: _120  and  _122
REMARK   53  A    between atoms: _122  and  _123
REMARK   54  A    between atoms: _122  and  _125
REMARK   55  A    between atoms: _125  and  _126
REMARK   56  A    between atoms: _129  and  _131
REMARK   57  A    between atoms: _131  and  _132
REMARK   58  A    between atoms: _134  and  _136
REMARK   59  A    between atoms: _136  and  _137
REMARK   60  A    between atoms: _136  and  _139
REMARK   61  A    between atoms: _139  and  _140
REMARK   62  A    between atoms: _150  and  _152
REMARK   63  A    between atoms: _152  and  _153
REMARK   64  A    between atoms: _152  and  _155
REMARK   65  A    between atoms: _155  and  _156
REMARK   66  A    between atoms: _156  and  _157
REMARK   67  A    between atoms: _157  and  _158
REMARK   68  A    between atoms: _167  and  _169
REMARK   69  A    between atoms: _169  and  _170
REMARK   70  A    between atoms: _173  and  _175
REMARK   71  A    between atoms: _175  and  _176
REMARK   72  A    between atoms: _175  and  _178
REMARK   73  A    between atoms: _178  and  _179
REMARK   74  A    between atoms: _185  and  _187
REMARK   75  A    between atoms: _187  and  _188
REMARK   76  A    between atoms: _187  and  _190
REMARK   77  A    between atoms: _190  and  _191
REMARK   78  A    between atoms: _194  and  _196
REMARK   79  A    between atoms: _196  and  _197
REMARK   80  A    between atoms: _196  and  _199
REMARK   81  A    between atoms: _199  and  _200
REMARK   82  A    between atoms: _205  and  _206
REMARK   83  A    between atoms: _208  and  _210
REMARK   84  A    between atoms: _210  and  _211
REMARK   85  A    between atoms: _210  and  _213
REMARK   86  A    between atoms: _213  and  _214
REMARK   87  A    between atoms: _214  and  _215
REMARK   88  A    between atoms: _221  and  _222
REMARK   89  A    between atoms: _228  and  _229
REMARK   90  A    between atoms: _234  and  _236
REMARK   91  A    between atoms: _236  and  _237
REMARK                            x       y       z     vdW  Elec       q    Type
REMARK                         _______ _______ _______ _____ _____    ______ ____
ROOT
ATOM      1  O   HOH     1     -29.403 -18.463 -19.182  0.00  0.00    +0.000 OA
ENDROOT
TORSDOF 0
REMARK  Name = ../refined-set-2016/2r5a/2r5a_pocket.pdb
REMARK  91 active torsions:
REMARK  status: ('A' for Active; 'I' for Inactive)
REMARK    1  A    between atoms: _1  and  _3
REMARK    2  A    between atoms: _3  and  _4
REMARK    3  A    between atoms: _7  and  _9
REMARK    4  A    between atoms: _9  and  _10
REMARK    5  A    between atoms: _9  and  _12
REMARK    6  A    between atoms: _15  and  _17
REMARK    7  A    between atoms: _17  and  _18
REMARK    8  A    between atoms: _17  and  _20
REMARK    9  A    between atoms: _20  and  _21
REMARK   10  A    between atoms: _24  and  _26
REMARK   11  A    between atoms: _26  and  _27
REMARK   12  A    between atoms: _26  and  _29
REMARK   13  A    between atoms: _29  and  _30
REMARK   14  A    between atoms: _30  and  _31
REMARK   15  A    between atoms: _31  and  _32
REMARK   16  A    between atoms: _32  and  _33
REMARK   17  A    between atoms: _37  and  _39
REMARK   18  A    between atoms: _39  and  _40
REMARK   19  A    between atoms: _39  and  _42
REMARK   20  A    between atoms: _42  and  _43
REMARK   21  A    between atoms: _43  and  _44
REMARK   22  A    between atoms: _44  and  _45
REMARK   23  A    between atoms: _45  and  _46
REMARK   24  A    between atoms: _50  and  _52
REMARK   25  A    between atoms: _52  and  _53
REMARK   26  A    between atoms: _52  and  _55
REMARK   27  A    between atoms: _55  and  _56
REMARK   28  A    between atoms: _61  and  _63
REMARK   29  A    between atoms: _63  and  _64
REMARK   30  A    between atoms: _63  and  _66
REMARK   31  A    between atoms: _66  and  _67
REMARK   32  A    between atoms: _70  and  _72
REMARK   33  A    between atoms: _72  and  _73
REMARK   34  A    between atoms: _72  and  _75
REMARK   35  A    between atoms: _75  and  _76
REMARK   36  A    between atoms: _79  and  _81
REMARK   37  A    between atoms: _81  and  _82
REMARK   38  A    between atoms: _81  and  _84
REMARK   39  A    between atoms: _86  and  _88
REMARK   40  A    between atoms: _88  and  _89
REMARK   41  A    between atoms: _88  and  _91
REMARK   42  A    between atoms: _93  and  _95
REMARK   43  A    between atoms: _95  and  _96
REMARK   44  A    between atoms: _99  and  _101
REMARK   45  A    between atoms: _101  and  _102
REMARK   46  A    between atoms: _101  and  _104
REMARK   47  A    between atoms: _104  and  _105
REMARK   48  A    between atoms: _108  and  _110
REMARK   49  A    between atoms: _110  and  _111
REMARK   50  A    between atoms: _110  and  _113
REMARK   51  A    between atoms: _113  and  _114
REMARK   52  A    between atoms: _120  and  _122
REMARK   53  A    between atoms: _122  and  _123
REMARK   54  A    between atoms: _122  and  _125
REMARK   55  A    between atoms: _125  and  _126
REMARK   56  A    between atoms: _129  and  _131
REMARK   57  A    between atoms: _131  and  _132
REMARK   58  A    between atoms: _134  and  _136
REMARK   59  A    between atoms: _136  and  _137
REMARK   60  A    between atoms: _136  and  _139
REMARK   61  A    between atoms: _139  and  _140
REMARK   62  A    between atoms: _150  and  _152
REMARK   63  A    between atoms: _152  and  _153
REMARK   64  A    between atoms: _152  and  _155
REMARK   65  A    between atoms: _155  and  _156
REMARK   66  A    between atoms: _156  and  _157
REMARK   67  A    between atoms: _157  and  _158
REMARK   68  A    between atoms: _167  and  _169
REMARK   69  A    between atoms: _169  and  _170
REMARK   70  A    between atoms: _173  and  _175
REMARK   71  A    between atoms: _175  and  _176
REMARK   72  A    between atoms: _175  and  _178
REMARK   73  A    between atoms: _178  and  _179
REMARK   74  A    between atoms: _185  and  _187
REMARK   75  A    between atoms: _187  and  _188
REMARK   76  A    between atoms: _187  and  _190
REMARK   77  A    between atoms: _190  and  _191
REMARK   78  A    between atoms: _194  and  _196
REMARK   79  A    between atoms: _196  and  _197
REMARK   80  A    between atoms: _196  and  _199
REMARK   81  A    between atoms: _199  and  _200
REMARK   82  A    between atoms: _205  and  _206
REMARK   83  A    between atoms: _208  and  _210
REMARK   84  A    between atoms: _210  and  _211
REMARK   85  A    between atoms: _210  and  _213
REMARK   86  A    between atoms: _213  and  _214
REMARK   87  A    between atoms: _214  and  _215
REMARK   88  A    between atoms: _221  and  _222
REMARK   89  A    between atoms: _228  and  _229
REMARK   90  A    between atoms: _234  and  _236
REMARK   91  A    between atoms: _236  and  _237
REMARK                            x       y       z     vdW  Elec       q    Type
REMARK                         _______ _______ _______ _____ _____    ______ ____
ROOT
ATOM      1  O   HOH     1     -25.093 -14.514 -12.525  0.00  0.00    +0.000 OA
ENDROOT
TORSDOF 0
REMARK  Name = ../refined-set-2016/2r5a/2r5a_pocket.pdb
REMARK  91 active torsions:
REMARK  status: ('A' for Active; 'I' for Inactive)
REMARK    1  A    between atoms: _1  and  _3
REMARK    2  A    between atoms: _3  and  _4
REMARK    3  A    between atoms: _7  and  _9
REMARK    4  A    between atoms: _9  and  _10
REMARK    5  A    between atoms: _9  and  _12
REMARK    6  A    between atoms: _15  and  _17
REMARK    7  A    between atoms: _17  and  _18
REMARK    8  A    between atoms: _17  and  _20
REMARK    9  A    between atoms: _20  and  _21
REMARK   10  A    between atoms: _24  and  _26
REMARK   11  A    between atoms: _26  and  _27
REMARK   12  A    between atoms: _26  and  _29
REMARK   13  A    between atoms: _29  and  _30
REMARK   14  A    between atoms: _30  and  _31
REMARK   15  A    between atoms: _31  and  _32
REMARK   16  A    between atoms: _32  and  _33
REMARK   17  A    between atoms: _37  and  _39
REMARK   18  A    between atoms: _39  and  _40
REMARK   19  A    between atoms: _39  and  _42
REMARK   20  A    between atoms: _42  and  _43
REMARK   21  A    between atoms: _43  and  _44
REMARK   22  A    between atoms: _44  and  _45
REMARK   23  A    between atoms: _45  and  _46
REMARK   24  A    between atoms: _50  and  _52
REMARK   25  A    between atoms: _52  and  _53
REMARK   26  A    between atoms: _52  and  _55
REMARK   27  A    between atoms: _55  and  _56
REMARK   28  A    between atoms: _61  and  _63
REMARK   29  A    between atoms: _63  and  _64
REMARK   30  A    between atoms: _63  and  _66
REMARK   31  A    between atoms: _66  and  _67
REMARK   32  A    between atoms: _70  and  _72
REMARK   33  A    between atoms: _72  and  _73
REMARK   34  A    between atoms: _72  and  _75
REMARK   35  A    between atoms: _75  and  _76
REMARK   36  A    between atoms: _79  and  _81
REMARK   37  A    between atoms: _81  and  _82
REMARK   38  A    between atoms: _81  and  _84
REMARK   39  A    between atoms: _86  and  _88
REMARK   40  A    between atoms: _88  and  _89
REMARK   41  A    between atoms: _88  and  _91
REMARK   42  A    between atoms: _93  and  _95
REMARK   43  A    between atoms: _95  and  _96
REMARK   44  A    between atoms: _99  and  _101
REMARK   45  A    between atoms: _101  and  _102
REMARK   46  A    between atoms: _101  and  _104
REMARK   47  A    between atoms: _104  and  _105
REMARK   48  A    between atoms: _108  and  _110
REMARK   49  A    between atoms: _110  and  _111
REMARK   50  A    between atoms: _110  and  _113
REMARK   51  A    between atoms: _113  and  _114
REMARK   52  A    between atoms: _120  and  _122
REMARK   53  A    between atoms: _122  and  _123
REMARK   54  A    between atoms: _122  and  _125
REMARK   55  A    between atoms: _125  and  _126
REMARK   56  A    between atoms: _129  and  _131
REMARK   57  A    between atoms: _131  and  _132
REMARK   58  A    between atoms: _134  and  _136
REMARK   59  A    between atoms: _136  and  _137
REMARK   60  A    between atoms: _136  and  _139
REMARK   61  A    between atoms: _139  and  _140
REMARK   62  A    between atoms: _150  and  _152
REMARK   63  A    between atoms: _152  and  _153
REMARK   64  A    between atoms: _152  and  _155
REMARK   65  A    between atoms: _155  and  _156
REMARK   66  A    between atoms: _156  and  _157
REMARK   67  A    between atoms: _157  and  _158
REMARK   68  A    between atoms: _167  and  _169
REMARK   69  A    between atoms: _169  and  _170
REMARK   70  A    between atoms: _173  and  _175
REMARK   71  A    between atoms: _175  and  _176
REMARK   72  A    between atoms: _175  and  _178
REMARK   73  A    between atoms: _178  and  _179
REMARK   74  A    between atoms: _185  and  _187
REMARK   75  A    between atoms: _187  and  _188
REMARK   76  A    between atoms: _187  and  _190
REMARK   77  A    between atoms: _190  and  _191
REMARK   78  A    between atoms: _194  and  _196
REMARK   79  A    between atoms: _196  and  _197
REMARK   80  A    between atoms: _196  and  _199
REMARK   81  A    between atoms: _199  and  _200
REMARK   82  A    between atoms: _205  and  _206
REMARK   83  A    between atoms: _208  and  _210
REMARK   84  A    between atoms: _210  and  _211
REMARK   85  A    between atoms: _210  and  _213
REMARK   86  A    between atoms: _213  and  _214
REMARK   87  A    between atoms: _214  and  _215
REMARK   88  A    between atoms: _221  and  _222
REMARK   89  A    between atoms: _228  and  _229
REMARK   90  A    between atoms: _234  and  _236
REMARK   91  A    between atoms: _236  and  _237
REMARK                            x       y       z     vdW  Elec       q    Type
REMARK                         _______ _______ _______ _____ _____    ______ ____
ROOT
ATOM      1  O   HOH     1     -19.089 -19.015 -16.845  0.00  0.00    +0.000 OA
ENDROOT
TORSDOF 0
REMARK  Name = ../refined-set-2016/2r5a/2r5a_pocket.pdb
REMARK  91 active torsions:
REMARK  status: ('A' for Active; 'I' for Inactive)
REMARK    1  A    between atoms: _1  and  _3
REMARK    2  A    between atoms: _3  and  _4
REMARK    3  A    between atoms: _7  and  _9
REMARK    4  A    between atoms: _9  and  _10
REMARK    5  A    between atoms: _9  and  _12
REMARK    6  A    between atoms: _15  and  _17
REMARK    7  A    between atoms: _17  and  _18
REMARK    8  A    between atoms: _17  and  _20
REMARK    9  A    between atoms: _20  and  _21
REMARK   10  A    between atoms: _24  and  _26
REMARK   11  A    between atoms: _26  and  _27
REMARK   12  A    between atoms: _26  and  _29
REMARK   13  A    between atoms: _29  and  _30
REMARK   14  A    between atoms: _30  and  _31
REMARK   15  A    between atoms: _31  and  _32
REMARK   16  A    between atoms: _32  and  _33
REMARK   17  A    between atoms: _37  and  _39
REMARK   18  A    between atoms: _39  and  _40
REMARK   19  A    between atoms: _39  and  _42
REMARK   20  A    between atoms: _42  and  _43
REMARK   21  A    between atoms: _43  and  _44
REMARK   22  A    between atoms: _44  and  _45
REMARK   23  A    between atoms: _45  and  _46
REMARK   24  A    between atoms: _50  and  _52
REMARK   25  A    between atoms: _52  and  _53
REMARK   26  A    between atoms: _52  and  _55
REMARK   27  A    between atoms: _55  and  _56
REMARK   28  A    between atoms: _61  and  _63
REMARK   29  A    between atoms: _63  and  _64
REMARK   30  A    between atoms: _63  and  _66
REMARK   31  A    between atoms: _66  and  _67
REMARK   32  A    between atoms: _70  and  _72
REMARK   33  A    between atoms: _72  and  _73
REMARK   34  A    between atoms: _72  and  _75
REMARK   35  A    between atoms: _75  and  _76
REMARK   36  A    between atoms: _79  and  _81
REMARK   37  A    between atoms: _81  and  _82
REMARK   38  A    between atoms: _81  and  _84
REMARK   39  A    between atoms: _86  and  _88
REMARK   40  A    between atoms: _88  and  _89
REMARK   41  A    between atoms: _88  and  _91
REMARK   42  A    between atoms: _93  and  _95
REMARK   43  A    between atoms: _95  and  _96
REMARK   44  A    between atoms: _99  and  _101
REMARK   45  A    between atoms: _101  and  _102
REMARK   46  A    between atoms: _101  and  _104
REMARK   47  A    between atoms: _104  and  _105
REMARK   48  A    between atoms: _108  and  _110
REMARK   49  A    between atoms: _110  and  _111
REMARK   50  A    between atoms: _110  and  _113
REMARK   51  A    between atoms: _113  and  _114
REMARK   52  A    between atoms: _120  and  _122
REMARK   53  A    between atoms: _122  and  _123
REMARK   54  A    between atoms: _122  and  _125
REMARK   55  A    between atoms: _125  and  _126
REMARK   56  A    between atoms: _129  and  _131
REMARK   57  A    between atoms: _131  and  _132
REMARK   58  A    between atoms: _134  and  _136
REMARK   59  A    between atoms: _136  and  _137
REMARK   60  A    between atoms: _136  and  _139
REMARK   61  A    between atoms: _139  and  _140
REMARK   62  A    between atoms: _150  and  _152
REMARK   63  A    between atoms: _152  and  _153
REMARK   64  A    between atoms: _152  and  _155
REMARK   65  A    between atoms: _155  and  _156
REMARK   66  A    between atoms: _156  and  _157
REMARK   67  A    between atoms: _157  and  _158
REMARK   68  A    between atoms: _167  and  _169
REMARK   69  A    between atoms: _169  and  _170
REMARK   70  A    between atoms: _173  and  _175
REMARK   71  A    between atoms: _175  and  _176
REMARK   72  A    between atoms: _175  and  _178
REMARK   73  A    between atoms: _178  and  _179
REMARK   74  A    between atoms: _185  and  _187
REMARK   75  A    between atoms: _187  and  _188
REMARK   76  A    between atoms: _187  and  _190
REMARK   77  A    between atoms: _190  and  _191
REMARK   78  A    between atoms: _194  and  _196
REMARK   79  A    between atoms: _196  and  _197
REMARK   80  A    between atoms: _196  and  _199
REMARK   81  A    between atoms: _199  and  _200
REMARK   82  A    between atoms: _205  and  _206
REMARK   83  A    between atoms: _208  and  _210
REMARK   84  A    between atoms: _210  and  _211
REMARK   85  A    between atoms: _210  and  _213
REMARK   86  A    between atoms: _213  and  _214
REMARK   87  A    between atoms: _214  and  _215
REMARK   88  A    between atoms: _221  and  _222
REMARK   89  A    between atoms: _228  and  _229
REMARK   90  A    between atoms: _234  and  _236
REMARK   91  A    between atoms: _236  and  _237
REMARK                            x       y       z     vdW  Elec       q    Type
REMARK                         _______ _______ _______ _____ _____    ______ ____
ROOT
ATOM      1  O   HOH     1     -21.591 -19.672 -16.333  0.00  0.00    +0.000 OA
ENDROOT
TORSDOF 0
REMARK  Name = ../refined-set-2016/2r5a/2r5a_pocket.pdb
REMARK  91 active torsions:
REMARK  status: ('A' for Active; 'I' for Inactive)
REMARK    1  A    between atoms: _1  and  _3
REMARK    2  A    between atoms: _3  and  _4
REMARK    3  A    between atoms: _7  and  _9
REMARK    4  A    between atoms: _9  and  _10
REMARK    5  A    between atoms: _9  and  _12
REMARK    6  A    between atoms: _15  and  _17
REMARK    7  A    between atoms: _17  and  _18
REMARK    8  A    between atoms: _17  and  _20
REMARK    9  A    between atoms: _20  and  _21
REMARK   10  A    between atoms: _24  and  _26
REMARK   11  A    between atoms: _26  and  _27
REMARK   12  A    between atoms: _26  and  _29
REMARK   13  A    between atoms: _29  and  _30
REMARK   14  A    between atoms: _30  and  _31
REMARK   15  A    between atoms: _31  and  _32
REMARK   16  A    between atoms: _32  and  _33
REMARK   17  A    between atoms: _37  and  _39
REMARK   18  A    between atoms: _39  and  _40
REMARK   19  A    between atoms: _39  and  _42
REMARK   20  A    between atoms: _42  and  _43
REMARK   21  A    between atoms: _43  and  _44
REMARK   22  A    between atoms: _44  and  _45
REMARK   23  A    between atoms: _45  and  _46
REMARK   24  A    between atoms: _50  and  _52
REMARK   25  A    between atoms: _52  and  _53
REMARK   26  A    between atoms: _52  and  _55
REMARK   27  A    between atoms: _55  and  _56
REMARK   28  A    between atoms: _61  and  _63
REMARK   29  A    between atoms: _63  and  _64
REMARK   30  A    between atoms: _63  and  _66
REMARK   31  A    between atoms: _66  and  _67
REMARK   32  A    between atoms: _70  and  _72
REMARK   33  A    between atoms: _72  and  _73
REMARK   34  A    between atoms: _72  and  _75
REMARK   35  A    between atoms: _75  and  _76
REMARK   36  A    between atoms: _79  and  _81
REMARK   37  A    between atoms: _81  and  _82
REMARK   38  A    between atoms: _81  and  _84
REMARK   39  A    between atoms: _86  and  _88
REMARK   40  A    between atoms: _88  and  _89
REMARK   41  A    between atoms: _88  and  _91
REMARK   42  A    between atoms: _93  and  _95
REMARK   43  A    between atoms: _95  and  _96
REMARK   44  A    between atoms: _99  and  _101
REMARK   45  A    between atoms: _101  and  _102
REMARK   46  A    between atoms: _101  and  _104
REMARK   47  A    between atoms: _104  and  _105
REMARK   48  A    between atoms: _108  and  _110
REMARK   49  A    between atoms: _110  and  _111
REMARK   50  A    between atoms: _110  and  _113
REMARK   51  A    between atoms: _113  and  _114
REMARK   52  A    between atoms: _120  and  _122
REMARK   53  A    between atoms: _122  and  _123
REMARK   54  A    between atoms: _122  and  _125
REMARK   55  A    between atoms: _125  and  _126
REMARK   56  A    between atoms: _129  and  _131
REMARK   57  A    between atoms: _131  and  _132
REMARK   58  A    between atoms: _134  and  _136
REMARK   59  A    between atoms: _136  and  _137
REMARK   60  A    between atoms: _136  and  _139
REMARK   61  A    between atoms: _139  and  _140
REMARK   62  A    between atoms: _150  and  _152
REMARK   63  A    between atoms: _152  and  _153
REMARK   64  A    between atoms: _152  and  _155
REMARK   65  A    between atoms: _155  and  _156
REMARK   66  A    between atoms: _156  and  _157
REMARK   67  A    between atoms: _157  and  _158
REMARK   68  A    between atoms: _167  and  _169
REMARK   69  A    between atoms: _169  and  _170
REMARK   70  A    between atoms: _173  and  _175
REMARK   71  A    between atoms: _175  and  _176
REMARK   72  A    between atoms: _175  and  _178
REMARK   73  A    between atoms: _178  and  _179
REMARK   74  A    between atoms: _185  and  _187
REMARK   75  A    between atoms: _187  and  _188
REMARK   76  A    between atoms: _187  and  _190
REMARK   77  A    between atoms: _190  and  _191
REMARK   78  A    between atoms: _194  and  _196
REMARK   79  A    between atoms: _196  and  _197
REMARK   80  A    between atoms: _196  and  _199
REMARK   81  A    between atoms: _199  and  _200
REMARK   82  A    between atoms: _205  and  _206
REMARK   83  A    between atoms: _208  and  _210
REMARK   84  A    between atoms: _210  and  _211
REMARK   85  A    between atoms: _210  and  _213
REMARK   86  A    between atoms: _213  and  _214
REMARK   87  A    between atoms: _214  and  _215
REMARK   88  A    between atoms: _221  and  _222
REMARK   89  A    between atoms: _228  and  _229
REMARK   90  A    between atoms: _234  and  _236
REMARK   91  A    between atoms: _236  and  _237
REMARK                            x       y       z     vdW  Elec       q    Type
REMARK                         _______ _______ _______ _____ _____    ______ ____
ROOT
ATOM      1  O   HOH     1     -24.091 -24.017 -24.512  0.00  0.00    +0.000 OA
ENDROOT
TORSDOF 0
REMARK  Name = ../refined-set-2016/2r5a/2r5a_pocket.pdb
REMARK  91 active torsions:
REMARK  status: ('A' for Active; 'I' for Inactive)
REMARK    1  A    between atoms: _1  and  _3
REMARK    2  A    between atoms: _3  and  _4
REMARK    3  A    between atoms: _7  and  _9
REMARK    4  A    between atoms: _9  and  _10
REMARK    5  A    between atoms: _9  and  _12
REMARK    6  A    between atoms: _15  and  _17
REMARK    7  A    between atoms: _17  and  _18
REMARK    8  A    between atoms: _17  and  _20
REMARK    9  A    between atoms: _20  and  _21
REMARK   10  A    between atoms: _24  and  _26
REMARK   11  A    between atoms: _26  and  _27
REMARK   12  A    between atoms: _26  and  _29
REMARK   13  A    between atoms: _29  and  _30
REMARK   14  A    between atoms: _30  and  _31
REMARK   15  A    between atoms: _31  and  _32
REMARK   16  A    between atoms: _32  and  _33
REMARK   17  A    between atoms: _37  and  _39
REMARK   18  A    between atoms: _39  and  _40
REMARK   19  A    between atoms: _39  and  _42
REMARK   20  A    between atoms: _42  and  _43
REMARK   21  A    between atoms: _43  and  _44
REMARK   22  A    between atoms: _44  and  _45
REMARK   23  A    between atoms: _45  and  _46
REMARK   24  A    between atoms: _50  and  _52
REMARK   25  A    between atoms: _52  and  _53
REMARK   26  A    between atoms: _52  and  _55
REMARK   27  A    between atoms: _55  and  _56
REMARK   28  A    between atoms: _61  and  _63
REMARK   29  A    between atoms: _63  and  _64
REMARK   30  A    between atoms: _63  and  _66
REMARK   31  A    between atoms: _66  and  _67
REMARK   32  A    between atoms: _70  and  _72
REMARK   33  A    between atoms: _72  and  _73
REMARK   34  A    between atoms: _72  and  _75
REMARK   35  A    between atoms: _75  and  _76
REMARK   36  A    between atoms: _79  and  _81
REMARK   37  A    between atoms: _81  and  _82
REMARK   38  A    between atoms: _81  and  _84
REMARK   39  A    between atoms: _86  and  _88
REMARK   40  A    between atoms: _88  and  _89
REMARK   41  A    between atoms: _88  and  _91
REMARK   42  A    between atoms: _93  and  _95
REMARK   43  A    between atoms: _95  and  _96
REMARK   44  A    between atoms: _99  and  _101
REMARK   45  A    between atoms: _101  and  _102
REMARK   46  A    between atoms: _101  and  _104
REMARK   47  A    between atoms: _104  and  _105
REMARK   48  A    between atoms: _108  and  _110
REMARK   49  A    between atoms: _110  and  _111
REMARK   50  A    between atoms: _110  and  _113
REMARK   51  A    between atoms: _113  and  _114
REMARK   52  A    between atoms: _120  and  _122
REMARK   53  A    between atoms: _122  and  _123
REMARK   54  A    between atoms: _122  and  _125
REMARK   55  A    between atoms: _125  and  _126
REMARK   56  A    between atoms: _129  and  _131
REMARK   57  A    between atoms: _131  and  _132
REMARK   58  A    between atoms: _134  and  _136
REMARK   59  A    between atoms: _136  and  _137
REMARK   60  A    between atoms: _136  and  _139
REMARK   61  A    between atoms: _139  and  _140
REMARK   62  A    between atoms: _150  and  _152
REMARK   63  A    between atoms: _152  and  _153
REMARK   64  A    between atoms: _152  and  _155
REMARK   65  A    between atoms: _155  and  _156
REMARK   66  A    between atoms: _156  and  _157
REMARK   67  A    between atoms: _157  and  _158
REMARK   68  A    between atoms: _167  and  _169
REMARK   69  A    between atoms: _169  and  _170
REMARK   70  A    between atoms: _173  and  _175
REMARK   71  A    between atoms: _175  and  _176
REMARK   72  A    between atoms: _175  and  _178
REMARK   73  A    between atoms: _178  and  _179
REMARK   74  A    between atoms: _185  and  _187
REMARK   75  A    between atoms: _187  and  _188
REMARK   76  A    between atoms: _187  and  _190
REMARK   77  A    between atoms: _190  and  _191
REMARK   78  A    between atoms: _194  and  _196
REMARK   79  A    between atoms: _196  and  _197
REMARK   80  A    between atoms: _196  and  _199
REMARK   81  A    between atoms: _199  and  _200
REMARK   82  A    between atoms: _205  and  _206
REMARK   83  A    between atoms: _208  and  _210
REMARK   84  A    between atoms: _210  and  _211
REMARK   85  A    between atoms: _210  and  _213
REMARK   86  A    between atoms: _213  and  _214
REMARK   87  A    between atoms: _214  and  _215
REMARK   88  A    between atoms: _221  and  _222
REMARK   89  A    between atoms: _228  and  _229
REMARK   90  A    between atoms: _234  and  _236
REMARK   91  A    between atoms: _236  and  _237
REMARK                            x       y       z     vdW  Elec       q    Type
REMARK                         _______ _______ _______ _____ _____    ______ ____
ROOT
ATOM      1  O   HOH     1     -20.460 -17.154 -19.184  0.00  0.00    +0.000 OA
ENDROOT
TORSDOF 0
REMARK  Name = ../refined-set-2016/2r5a/2r5a_pocket.pdb
REMARK  91 active torsions:
REMARK  status: ('A' for Active; 'I' for Inactive)
REMARK    1  A    between atoms: _1  and  _3
REMARK    2  A    between atoms: _3  and  _4
REMARK    3  A    between atoms: _7  and  _9
REMARK    4  A    between atoms: _9  and  _10
REMARK    5  A    between atoms: _9  and  _12
REMARK    6  A    between atoms: _15  and  _17
REMARK    7  A    between atoms: _17  and  _18
REMARK    8  A    between atoms: _17  and  _20
REMARK    9  A    between atoms: _20  and  _21
REMARK   10  A    between atoms: _24  and  _26
REMARK   11  A    between atoms: _26  and  _27
REMARK   12  A    between atoms: _26  and  _29
REMARK   13  A    between atoms: _29  and  _30
REMARK   14  A    between atoms: _30  and  _31
REMARK   15  A    between atoms: _31  and  _32
REMARK   16  A    between atoms: _32  and  _33
REMARK   17  A    between atoms: _37  and  _39
REMARK   18  A    between atoms: _39  and  _40
REMARK   19  A    between atoms: _39  and  _42
REMARK   20  A    between atoms: _42  and  _43
REMARK   21  A    between atoms: _43  and  _44
REMARK   22  A    between atoms: _44  and  _45
REMARK   23  A    between atoms: _45  and  _46
REMARK   24  A    between atoms: _50  and  _52
REMARK   25  A    between atoms: _52  and  _53
REMARK   26  A    between atoms: _52  and  _55
REMARK   27  A    between atoms: _55  and  _56
REMARK   28  A    between atoms: _61  and  _63
REMARK   29  A    between atoms: _63  and  _64
REMARK   30  A    between atoms: _63  and  _66
REMARK   31  A    between atoms: _66  and  _67
REMARK   32  A    between atoms: _70  and  _72
REMARK   33  A    between atoms: _72  and  _73
REMARK   34  A    between atoms: _72  and  _75
REMARK   35  A    between atoms: _75  and  _76
REMARK   36  A    between atoms: _79  and  _81
REMARK   37  A    between atoms: _81  and  _82
REMARK   38  A    between atoms: _81  and  _84
REMARK   39  A    between atoms: _86  and  _88
REMARK   40  A    between atoms: _88  and  _89
REMARK   41  A    between atoms: _88  and  _91
REMARK   42  A    between atoms: _93  and  _95
REMARK   43  A    between atoms: _95  and  _96
REMARK   44  A    between atoms: _99  and  _101
REMARK   45  A    between atoms: _101  and  _102
REMARK   46  A    between atoms: _101  and  _104
REMARK   47  A    between atoms: _104  and  _105
REMARK   48  A    between atoms: _108  and  _110
REMARK   49  A    between atoms: _110  and  _111
REMARK   50  A    between atoms: _110  and  _113
REMARK   51  A    between atoms: _113  and  _114
REMARK   52  A    between atoms: _120  and  _122
REMARK   53  A    between atoms: _122  and  _123
REMARK   54  A    between atoms: _122  and  _125
REMARK   55  A    between atoms: _125  and  _126
REMARK   56  A    between atoms: _129  and  _131
REMARK   57  A    between atoms: _131  and  _132
REMARK   58  A    between atoms: _134  and  _136
REMARK   59  A    between atoms: _136  and  _137
REMARK   60  A    between atoms: _136  and  _139
REMARK   61  A    between atoms: _139  and  _140
REMARK   62  A    between atoms: _150  and  _152
REMARK   63  A    between atoms: _152  and  _153
REMARK   64  A    between atoms: _152  and  _155
REMARK   65  A    between atoms: _155  and  _156
REMARK   66  A    between atoms: _156  and  _157
REMARK   67  A    between atoms: _157  and  _158
REMARK   68  A    between atoms: _167  and  _169
REMARK   69  A    between atoms: _169  and  _170
REMARK   70  A    between atoms: _173  and  _175
REMARK   71  A    between atoms: _175  and  _176
REMARK   72  A    between atoms: _175  and  _178
REMARK   73  A    between atoms: _178  and  _179
REMARK   74  A    between atoms: _185  and  _187
REMARK   75  A    between atoms: _187  and  _188
REMARK   76  A    between atoms: _187  and  _190
REMARK   77  A    between atoms: _190  and  _191
REMARK   78  A    between atoms: _194  and  _196
REMARK   79  A    between atoms: _196  and  _197
REMARK   80  A    between atoms: _196  and  _199
REMARK   81  A    between atoms: _199  and  _200
REMARK   82  A    between atoms: _205  and  _206
REMARK   83  A    between atoms: _208  and  _210
REMARK   84  A    between atoms: _210  and  _211
REMARK   85  A    between atoms: _210  and  _213
REMARK   86  A    between atoms: _213  and  _214
REMARK   87  A    between atoms: _214  and  _215
REMARK   88  A    between atoms: _221  and  _222
REMARK   89  A    between atoms: _228  and  _229
REMARK   90  A    between atoms: _234  and  _236
REMARK   91  A    between atoms: _236  and  _237
REMARK                            x       y       z     vdW  Elec       q    Type
REMARK                         _______ _______ _______ _____ _____    ______ ____
ROOT
ATOM      1  O   HOH     1     -23.619 -17.382 -27.464  0.00  0.00    +0.000 OA
ENDROOT
TORSDOF 0
