REMARK  Name = ../refined-set-2016/4q81/4q81_pocket.pdb
REMARK  139 active torsions:
REMARK  status: ('A' for Active; 'I' for Inactive)
REMARK    1  A    between atoms: _1  and  _3
REMARK    2  A    between atoms: _3  and  _4
REMARK    3  A    between atoms: _3  and  _6
REMARK    4  A    between atoms: _6  and  _7
REMARK    5  A    between atoms: _17  and  _19
REMARK    6  A    between atoms: _19  and  _20
REMARK    7  A    between atoms: _19  and  _22
REMARK    8  A    between atoms: _22  and  _23
REMARK    9  A    between atoms: _28  and  _29
REMARK   10  A    between atoms: _31  and  _33
REMARK   11  A    between atoms: _33  and  _34
REMARK   12  A    between atoms: _33  and  _36
REMARK   13  A    between atoms: _36  and  _37
REMARK   14  A    between atoms: _39  and  _41
REMARK   15  A    between atoms: _41  and  _42
REMARK   16  A    between atoms: _41  and  _44
REMARK   17  A    between atoms: _44  and  _45
REMARK   18  A    between atoms: _50  and  _52
REMARK   19  A    between atoms: _52  and  _53
REMARK   20  A    between atoms: _52  and  _55
REMARK   21  A    between atoms: _55  and  _56
REMARK   22  A    between atoms: _61  and  _63
REMARK   23  A    between atoms: _63  and  _64
REMARK   24  A    between atoms: _67  and  _69
REMARK   25  A    between atoms: _69  and  _70
REMARK   26  A    between atoms: _69  and  _72
REMARK   27  A    between atoms: _72  and  _73
REMARK   28  A    between atoms: _79  and  _81
REMARK   29  A    between atoms: _81  and  _82
REMARK   30  A    between atoms: _81  and  _84
REMARK   31  A    between atoms: _84  and  _85
REMARK   32  A    between atoms: _90  and  _92
REMARK   33  A    between atoms: _92  and  _93
REMARK   34  A    between atoms: _92  and  _95
REMARK   35  A    between atoms: _95  and  _96
REMARK   36  A    between atoms: _99  and  _101
REMARK   37  A    between atoms: _101  and  _102
REMARK   38  A    between atoms: _101  and  _104
REMARK   39  A    between atoms: _104  and  _105
REMARK   40  A    between atoms: _105  and  _106
REMARK   41  A    between atoms: _111  and  _113
REMARK   42  A    between atoms: _113  and  _114
REMARK   43  A    between atoms: _113  and  _116
REMARK   44  A    between atoms: _116  and  _117
REMARK   45  A    between atoms: _123  and  _125
REMARK   46  A    between atoms: _136  and  _139
REMARK   47  A    between atoms: _139  and  _140
REMARK   48  A    between atoms: _148  and  _149
REMARK   49  A    between atoms: _157  and  _159
REMARK   50  A    between atoms: _159  and  _160
REMARK   51  A    between atoms: _159  and  _162
REMARK   52  A    between atoms: _162  and  _163
REMARK   53  A    between atoms: _163  and  _164
REMARK   54  A    between atoms: _167  and  _169
REMARK   55  A    between atoms: _169  and  _170
REMARK   56  A    between atoms: _169  and  _172
REMARK   57  A    between atoms: _172  and  _173
REMARK   58  A    between atoms: _178  and  _180
REMARK   59  A    between atoms: _180  and  _181
REMARK   60  A    between atoms: _180  and  _183
REMARK   61  A    between atoms: _183  and  _184
REMARK   62  A    between atoms: _184  and  _185
REMARK   63  A    between atoms: _188  and  _190
REMARK   64  A    between atoms: _190  and  _191
REMARK   65  A    between atoms: _190  and  _193
REMARK   66  A    between atoms: _193  and  _194
REMARK   67  A    between atoms: _197  and  _199
REMARK   68  A    between atoms: _199  and  _200
REMARK   69  A    between atoms: _199  and  _202
REMARK   70  A    between atoms: _202  and  _203
REMARK   71  A    between atoms: _204  and  ZN_392
REMARK   72  A    between atoms: _208  and  _210
REMARK   73  A    between atoms: _210  and  _211
REMARK   74  A    between atoms: _210  and  _213
REMARK   75  A    between atoms: _213  and  _214
REMARK   76  A    between atoms: _217  and  _219
REMARK   77  A    between atoms: _219  and  _220
REMARK   78  A    between atoms: _219  and  _222
REMARK   79  A    between atoms: _225  and  _227
REMARK   80  A    between atoms: _227  and  _228
REMARK   81  A    between atoms: _227  and  _230
REMARK   82  A    between atoms: _230  and  _231
REMARK   83  A    between atoms: _236  and  _238
REMARK   84  A    between atoms: _238  and  _239
REMARK   85  A    between atoms: _238  and  _241
REMARK   86  A    between atoms: _241  and  _242
REMARK   87  A    between atoms: _248  and  _250
REMARK   88  A    between atoms: _250  and  _251
REMARK   89  A    between atoms: _250  and  _253
REMARK   90  A    between atoms: _256  and  _258
REMARK   91  A    between atoms: _258  and  _259
REMARK   92  A    between atoms: _258  and  _261
REMARK   93  A    between atoms: _261  and  _262
REMARK   94  A    between atoms: _265  and  _267
REMARK   95  A    between atoms: _267  and  _268
REMARK   96  A    between atoms: _267  and  _270
REMARK   97  A    between atoms: _273  and  _275
REMARK   98  A    between atoms: _275  and  _276
REMARK   99  A    between atoms: _275  and  _278
REMARK  100  A    between atoms: _278  and  _279
REMARK  101  A    between atoms: _281  and  _283
REMARK  102  A    between atoms: _283  and  _284
REMARK  103  A    between atoms: _283  and  _286
REMARK  104  A    between atoms: _286  and  _287
REMARK  105  A    between atoms: _290  and  _292
REMARK  106  A    between atoms: _292  and  _293
REMARK  107  A    between atoms: _292  and  _295
REMARK  108  A    between atoms: _295  and  _296
REMARK  109  A    between atoms: _299  and  _301
REMARK  110  A    between atoms: _301  and  _302
REMARK  111  A    between atoms: _301  and  _304
REMARK  112  A    between atoms: _304  and  _305
REMARK  113  A    between atoms: _309  and  _310
REMARK  114  A    between atoms: _316  and  _317
REMARK  115  A    between atoms: _322  and  _324
REMARK  116  A    between atoms: _324  and  _325
REMARK  117  A    between atoms: _324  and  _327
REMARK  118  A    between atoms: _327  and  _328
REMARK  119  A    between atoms: _331  and  _333
REMARK  120  A    between atoms: _333  and  _334
REMARK  121  A    between atoms: _333  and  _336
REMARK  122  A    between atoms: _336  and  _337
REMARK  123  A    between atoms: _340  and  _342
REMARK  124  A    between atoms: _342  and  _343
REMARK  125  A    between atoms: _342  and  _345
REMARK  126  A    between atoms: _348  and  _350
REMARK  127  A    between atoms: _350  and  _351
REMARK  128  A    between atoms: _350  and  _353
REMARK  129  A    between atoms: _353  and  _354
REMARK  130  A    between atoms: _364  and  _366
REMARK  131  A    between atoms: _366  and  _367
REMARK  132  A    between atoms: _366  and  _369
REMARK  133  A    between atoms: _369  and  _370
REMARK  134  A    between atoms: _375  and  _377
REMARK  135  A    between atoms: _377  and  _378
REMARK  136  A    between atoms: _377  and  _380
REMARK  137  A    between atoms: _380  and  _381
REMARK  138  A    between atoms: _381  and  _382
REMARK  139  A    between atoms: _382  and  _383
REMARK                            x       y       z     vdW  Elec       q    Type
REMARK                         _______ _______ _______ _____ _____    ______ ____
ROOT
ATOM      1  CG  TRP A   1      26.848  -0.196  12.123  0.00  0.00    -0.002 A 
ATOM      2  CD2 TRP A   1      25.477  -0.679  12.052  0.00  0.00    +0.013 A 
ATOM      3  CE3 TRP A   1      24.861  -1.932  12.280  0.00  0.00    +0.001 A 
ATOM      4  CZ3 TRP A   1      23.402  -2.007  12.080  0.00  0.00    +0.000 A 
ATOM      5  CH2 TRP A   1      22.669  -0.873  11.720  0.00  0.00    +0.001 A 
ATOM      6  CZ2 TRP A   1      23.276   0.316  11.467  0.00  0.00    +0.017 A 
ATOM      7  CE2 TRP A   1      24.666   0.412  11.640  0.00  0.00    +0.056 A 
ATOM      8  NE1 TRP A   1      25.473   1.509  11.468  0.00  0.00    -0.352 N 
ATOM      9  HE1 TRP A   1      25.149   2.452  11.172  0.00  0.00    +0.166 HD
ATOM     10  CD1 TRP A   1      26.786   1.166  11.750  0.00  0.00    +0.068 A 
ENDROOT
BRANCH   1  11
ATOM     11  CB  TRP A   1      28.076  -0.985  12.505  0.00  0.00    +0.053 C 
BRANCH  11  12
ATOM     12  CA  TRP A   1      28.766  -1.671  11.303  0.00  0.00    +0.137 C 
BRANCH  12  13
ATOM     13  N   TRP A   1      29.452  -0.702  10.479  0.00  0.00    -0.239 NA
ATOM     14  H   TRP A   1      29.291   0.314  10.629  0.00  0.00    +0.142 HD
ENDBRANCH  12  13
BRANCH  12  15
ATOM     15  C   TRP A   1      27.796  -2.481  10.489  0.00  0.00    +0.224 C 
ATOM     16  O   TRP A   1      27.210  -2.025   9.472  0.00  0.00    -0.287 OA
ENDBRANCH  12  15
ENDBRANCH  11  12
ENDBRANCH   1  11
TORSDOF 4
REMARK  Name = ../refined-set-2016/4q81/4q81_pocket.pdb
REMARK  139 active torsions:
REMARK  status: ('A' for Active; 'I' for Inactive)
REMARK    1  A    between atoms: _1  and  _3
REMARK    2  A    between atoms: _3  and  _4
REMARK    3  A    between atoms: _3  and  _6
REMARK    4  A    between atoms: _6  and  _7
REMARK    5  A    between atoms: _17  and  _19
REMARK    6  A    between atoms: _19  and  _20
REMARK    7  A    between atoms: _19  and  _22
REMARK    8  A    between atoms: _22  and  _23
REMARK    9  A    between atoms: _28  and  _29
REMARK   10  A    between atoms: _31  and  _33
REMARK   11  A    between atoms: _33  and  _34
REMARK   12  A    between atoms: _33  and  _36
REMARK   13  A    between atoms: _36  and  _37
REMARK   14  A    between atoms: _39  and  _41
REMARK   15  A    between atoms: _41  and  _42
REMARK   16  A    between atoms: _41  and  _44
REMARK   17  A    between atoms: _44  and  _45
REMARK   18  A    between atoms: _50  and  _52
REMARK   19  A    between atoms: _52  and  _53
REMARK   20  A    between atoms: _52  and  _55
REMARK   21  A    between atoms: _55  and  _56
REMARK   22  A    between atoms: _61  and  _63
REMARK   23  A    between atoms: _63  and  _64
REMARK   24  A    between atoms: _67  and  _69
REMARK   25  A    between atoms: _69  and  _70
REMARK   26  A    between atoms: _69  and  _72
REMARK   27  A    between atoms: _72  and  _73
REMARK   28  A    between atoms: _79  and  _81
REMARK   29  A    between atoms: _81  and  _82
REMARK   30  A    between atoms: _81  and  _84
REMARK   31  A    between atoms: _84  and  _85
REMARK   32  A    between atoms: _90  and  _92
REMARK   33  A    between atoms: _92  and  _93
REMARK   34  A    between atoms: _92  and  _95
REMARK   35  A    between atoms: _95  and  _96
REMARK   36  A    between atoms: _99  and  _101
REMARK   37  A    between atoms: _101  and  _102
REMARK   38  A    between atoms: _101  and  _104
REMARK   39  A    between atoms: _104  and  _105
REMARK   40  A    between atoms: _105  and  _106
REMARK   41  A    between atoms: _111  and  _113
REMARK   42  A    between atoms: _113  and  _114
REMARK   43  A    between atoms: _113  and  _116
REMARK   44  A    between atoms: _116  and  _117
REMARK   45  A    between atoms: _123  and  _125
REMARK   46  A    between atoms: _136  and  _139
REMARK   47  A    between atoms: _139  and  _140
REMARK   48  A    between atoms: _148  and  _149
REMARK   49  A    between atoms: _157  and  _159
REMARK   50  A    between atoms: _159  and  _160
REMARK   51  A    between atoms: _159  and  _162
REMARK   52  A    between atoms: _162  and  _163
REMARK   53  A    between atoms: _163  and  _164
REMARK   54  A    between atoms: _167  and  _169
REMARK   55  A    between atoms: _169  and  _170
REMARK   56  A    between atoms: _169  and  _172
REMARK   57  A    between atoms: _172  and  _173
REMARK   58  A    between atoms: _178  and  _180
REMARK   59  A    between atoms: _180  and  _181
REMARK   60  A    between atoms: _180  and  _183
REMARK   61  A    between atoms: _183  and  _184
REMARK   62  A    between atoms: _184  and  _185
REMARK   63  A    between atoms: _188  and  _190
REMARK   64  A    between atoms: _190  and  _191
REMARK   65  A    between atoms: _190  and  _193
REMARK   66  A    between atoms: _193  and  _194
REMARK   67  A    between atoms: _197  and  _199
REMARK   68  A    between atoms: _199  and  _200
REMARK   69  A    between atoms: _199  and  _202
REMARK   70  A    between atoms: _202  and  _203
REMARK   71  A    between atoms: _204  and  ZN_392
REMARK   72  A    between atoms: _208  and  _210
REMARK   73  A    between atoms: _210  and  _211
REMARK   74  A    between atoms: _210  and  _213
REMARK   75  A    between atoms: _213  and  _214
REMARK   76  A    between atoms: _217  and  _219
REMARK   77  A    between atoms: _219  and  _220
REMARK   78  A    between atoms: _219  and  _222
REMARK   79  A    between atoms: _225  and  _227
REMARK   80  A    between atoms: _227  and  _228
REMARK   81  A    between atoms: _227  and  _230
REMARK   82  A    between atoms: _230  and  _231
REMARK   83  A    between atoms: _236  and  _238
REMARK   84  A    between atoms: _238  and  _239
REMARK   85  A    between atoms: _238  and  _241
REMARK   86  A    between atoms: _241  and  _242
REMARK   87  A    between atoms: _248  and  _250
REMARK   88  A    between atoms: _250  and  _251
REMARK   89  A    between atoms: _250  and  _253
REMARK   90  A    between atoms: _256  and  _258
REMARK   91  A    between atoms: _258  and  _259
REMARK   92  A    between atoms: _258  and  _261
REMARK   93  A    between atoms: _261  and  _262
REMARK   94  A    between atoms: _265  and  _267
REMARK   95  A    between atoms: _267  and  _268
REMARK   96  A    between atoms: _267  and  _270
REMARK   97  A    between atoms: _273  and  _275
REMARK   98  A    between atoms: _275  and  _276
REMARK   99  A    between atoms: _275  and  _278
REMARK  100  A    between atoms: _278  and  _279
REMARK  101  A    between atoms: _281  and  _283
REMARK  102  A    between atoms: _283  and  _284
REMARK  103  A    between atoms: _283  and  _286
REMARK  104  A    between atoms: _286  and  _287
REMARK  105  A    between atoms: _290  and  _292
REMARK  106  A    between atoms: _292  and  _293
REMARK  107  A    between atoms: _292  and  _295
REMARK  108  A    between atoms: _295  and  _296
REMARK  109  A    between atoms: _299  and  _301
REMARK  110  A    between atoms: _301  and  _302
REMARK  111  A    between atoms: _301  and  _304
REMARK  112  A    between atoms: _304  and  _305
REMARK  113  A    between atoms: _309  and  _310
REMARK  114  A    between atoms: _316  and  _317
REMARK  115  A    between atoms: _322  and  _324
REMARK  116  A    between atoms: _324  and  _325
REMARK  117  A    between atoms: _324  and  _327
REMARK  118  A    between atoms: _327  and  _328
REMARK  119  A    between atoms: _331  and  _333
REMARK  120  A    between atoms: _333  and  _334
REMARK  121  A    between atoms: _333  and  _336
REMARK  122  A    between atoms: _336  and  _337
REMARK  123  A    between atoms: _340  and  _342
REMARK  124  A    between atoms: _342  and  _343
REMARK  125  A    between atoms: _342  and  _345
REMARK  126  A    between atoms: _348  and  _350
REMARK  127  A    between atoms: _350  and  _351
REMARK  128  A    between atoms: _350  and  _353
REMARK  129  A    between atoms: _353  and  _354
REMARK  130  A    between atoms: _364  and  _366
REMARK  131  A    between atoms: _366  and  _367
REMARK  132  A    between atoms: _366  and  _369
REMARK  133  A    between atoms: _369  and  _370
REMARK  134  A    between atoms: _375  and  _377
REMARK  135  A    between atoms: _377  and  _378
REMARK  136  A    between atoms: _377  and  _380
REMARK  137  A    between atoms: _380  and  _381
REMARK  138  A    between atoms: _381  and  _382
REMARK  139  A    between atoms: _382  and  _383
REMARK                            x       y       z     vdW  Elec       q    Type
REMARK                         _______ _______ _______ _____ _____    ______ ____
ROOT
ATOM      1  CG  TYR A   1      23.103  -7.332  11.822  0.00  0.00    -0.020 A 
ATOM      2  CD2 TYR A   1      22.716  -7.371  13.173  0.00  0.00    -0.001 A 
ATOM      3  CE2 TYR A   1      21.906  -6.378  13.663  0.00  0.00    +0.036 A 
ATOM      4  CZ  TYR A   1      21.424  -5.386  12.833  0.00  0.00    +0.134 A 
ATOM      5  CE1 TYR A   1      21.754  -5.309  11.452  0.00  0.00    +0.036 A 
ATOM      6  CD1 TYR A   1      22.619  -6.339  10.993  0.00  0.00    -0.001 A 
ENDROOT
BRANCH   4   7
ATOM      7  OH  TYR A   1      20.575  -4.402  13.160  0.00  0.00    -0.506 OA
ATOM      8  HH  TYR A   1      20.353  -4.466  14.123  0.00  0.00    +0.292 HD
ENDBRANCH   4   7
BRANCH   1   9
ATOM      9  CB  TYR A   1      24.050  -8.425  11.302  0.00  0.00    +0.051 C 
BRANCH   9  10
ATOM     10  CA  TYR A   1      25.529  -8.051  11.528  0.00  0.00    +0.137 C 
BRANCH  10  11
ATOM     11  N   TYR A   1      25.873  -6.893  10.724  0.00  0.00    -0.239 NA
ATOM     12  H   TYR A   1      25.869  -6.962   9.686  0.00  0.00    +0.142 HD
ENDBRANCH  10  11
BRANCH  10  13
ATOM     13  C   TYR A   1      26.429  -9.269  11.235  0.00  0.00    +0.224 C 
ATOM     14  O   TYR A   1      26.034 -10.416  11.536  0.00  0.00    -0.287 OA
ENDBRANCH  10  13
ENDBRANCH   9  10
ENDBRANCH   1   9
TORSDOF 5
REMARK  Name = ../refined-set-2016/4q81/4q81_pocket.pdb
REMARK  139 active torsions:
REMARK  status: ('A' for Active; 'I' for Inactive)
REMARK    1  A    between atoms: _1  and  _3
REMARK    2  A    between atoms: _3  and  _4
REMARK    3  A    between atoms: _3  and  _6
REMARK    4  A    between atoms: _6  and  _7
REMARK    5  A    between atoms: _17  and  _19
REMARK    6  A    between atoms: _19  and  _20
REMARK    7  A    between atoms: _19  and  _22
REMARK    8  A    between atoms: _22  and  _23
REMARK    9  A    between atoms: _28  and  _29
REMARK   10  A    between atoms: _31  and  _33
REMARK   11  A    between atoms: _33  and  _34
REMARK   12  A    between atoms: _33  and  _36
REMARK   13  A    between atoms: _36  and  _37
REMARK   14  A    between atoms: _39  and  _41
REMARK   15  A    between atoms: _41  and  _42
REMARK   16  A    between atoms: _41  and  _44
REMARK   17  A    between atoms: _44  and  _45
REMARK   18  A    between atoms: _50  and  _52
REMARK   19  A    between atoms: _52  and  _53
REMARK   20  A    between atoms: _52  and  _55
REMARK   21  A    between atoms: _55  and  _56
REMARK   22  A    between atoms: _61  and  _63
REMARK   23  A    between atoms: _63  and  _64
REMARK   24  A    between atoms: _67  and  _69
REMARK   25  A    between atoms: _69  and  _70
REMARK   26  A    between atoms: _69  and  _72
REMARK   27  A    between atoms: _72  and  _73
REMARK   28  A    between atoms: _79  and  _81
REMARK   29  A    between atoms: _81  and  _82
REMARK   30  A    between atoms: _81  and  _84
REMARK   31  A    between atoms: _84  and  _85
REMARK   32  A    between atoms: _90  and  _92
REMARK   33  A    between atoms: _92  and  _93
REMARK   34  A    between atoms: _92  and  _95
REMARK   35  A    between atoms: _95  and  _96
REMARK   36  A    between atoms: _99  and  _101
REMARK   37  A    between atoms: _101  and  _102
REMARK   38  A    between atoms: _101  and  _104
REMARK   39  A    between atoms: _104  and  _105
REMARK   40  A    between atoms: _105  and  _106
REMARK   41  A    between atoms: _111  and  _113
REMARK   42  A    between atoms: _113  and  _114
REMARK   43  A    between atoms: _113  and  _116
REMARK   44  A    between atoms: _116  and  _117
REMARK   45  A    between atoms: _123  and  _125
REMARK   46  A    between atoms: _136  and  _139
REMARK   47  A    between atoms: _139  and  _140
REMARK   48  A    between atoms: _148  and  _149
REMARK   49  A    between atoms: _157  and  _159
REMARK   50  A    between atoms: _159  and  _160
REMARK   51  A    between atoms: _159  and  _162
REMARK   52  A    between atoms: _162  and  _163
REMARK   53  A    between atoms: _163  and  _164
REMARK   54  A    between atoms: _167  and  _169
REMARK   55  A    between atoms: _169  and  _170
REMARK   56  A    between atoms: _169  and  _172
REMARK   57  A    between atoms: _172  and  _173
REMARK   58  A    between atoms: _178  and  _180
REMARK   59  A    between atoms: _180  and  _181
REMARK   60  A    between atoms: _180  and  _183
REMARK   61  A    between atoms: _183  and  _184
REMARK   62  A    between atoms: _184  and  _185
REMARK   63  A    between atoms: _188  and  _190
REMARK   64  A    between atoms: _190  and  _191
REMARK   65  A    between atoms: _190  and  _193
REMARK   66  A    between atoms: _193  and  _194
REMARK   67  A    between atoms: _197  and  _199
REMARK   68  A    between atoms: _199  and  _200
REMARK   69  A    between atoms: _199  and  _202
REMARK   70  A    between atoms: _202  and  _203
REMARK   71  A    between atoms: _204  and  ZN_392
REMARK   72  A    between atoms: _208  and  _210
REMARK   73  A    between atoms: _210  and  _211
REMARK   74  A    between atoms: _210  and  _213
REMARK   75  A    between atoms: _213  and  _214
REMARK   76  A    between atoms: _217  and  _219
REMARK   77  A    between atoms: _219  and  _220
REMARK   78  A    between atoms: _219  and  _222
REMARK   79  A    between atoms: _225  and  _227
REMARK   80  A    between atoms: _227  and  _228
REMARK   81  A    between atoms: _227  and  _230
REMARK   82  A    between atoms: _230  and  _231
REMARK   83  A    between atoms: _236  and  _238
REMARK   84  A    between atoms: _238  and  _239
REMARK   85  A    between atoms: _238  and  _241
REMARK   86  A    between atoms: _241  and  _242
REMARK   87  A    between atoms: _248  and  _250
REMARK   88  A    between atoms: _250  and  _251
REMARK   89  A    between atoms: _250  and  _253
REMARK   90  A    between atoms: _256  and  _258
REMARK   91  A    between atoms: _258  and  _259
REMARK   92  A    between atoms: _258  and  _261
REMARK   93  A    between atoms: _261  and  _262
REMARK   94  A    between atoms: _265  and  _267
REMARK   95  A    between atoms: _267  and  _268
REMARK   96  A    between atoms: _267  and  _270
REMARK   97  A    between atoms: _273  and  _275
REMARK   98  A    between atoms: _275  and  _276
REMARK   99  A    between atoms: _275  and  _278
REMARK  100  A    between atoms: _278  and  _279
REMARK  101  A    between atoms: _281  and  _283
REMARK  102  A    between atoms: _283  and  _284
REMARK  103  A    between atoms: _283  and  _286
REMARK  104  A    between atoms: _286  and  _287
REMARK  105  A    between atoms: _290  and  _292
REMARK  106  A    between atoms: _292  and  _293
REMARK  107  A    between atoms: _292  and  _295
REMARK  108  A    between atoms: _295  and  _296
REMARK  109  A    between atoms: _299  and  _301
REMARK  110  A    between atoms: _301  and  _302
REMARK  111  A    between atoms: _301  and  _304
REMARK  112  A    between atoms: _304  and  _305
REMARK  113  A    between atoms: _309  and  _310
REMARK  114  A    between atoms: _316  and  _317
REMARK  115  A    between atoms: _322  and  _324
REMARK  116  A    between atoms: _324  and  _325
REMARK  117  A    between atoms: _324  and  _327
REMARK  118  A    between atoms: _327  and  _328
REMARK  119  A    between atoms: _331  and  _333
REMARK  120  A    between atoms: _333  and  _334
REMARK  121  A    between atoms: _333  and  _336
REMARK  122  A    between atoms: _336  and  _337
REMARK  123  A    between atoms: _340  and  _342
REMARK  124  A    between atoms: _342  and  _343
REMARK  125  A    between atoms: _342  and  _345
REMARK  126  A    between atoms: _348  and  _350
REMARK  127  A    between atoms: _350  and  _351
REMARK  128  A    between atoms: _350  and  _353
REMARK  129  A    between atoms: _353  and  _354
REMARK  130  A    between atoms: _364  and  _366
REMARK  131  A    between atoms: _366  and  _367
REMARK  132  A    between atoms: _366  and  _369
REMARK  133  A    between atoms: _369  and  _370
REMARK  134  A    between atoms: _375  and  _377
REMARK  135  A    between atoms: _377  and  _378
REMARK  136  A    between atoms: _377  and  _380
REMARK  137  A    between atoms: _380  and  _381
REMARK  138  A    between atoms: _381  and  _382
REMARK  139  A    between atoms: _382  and  _383
REMARK                            x       y       z     vdW  Elec       q    Type
REMARK                         _______ _______ _______ _____ _____    ______ ____
ROOT
ATOM      1  CA  SER A   1      18.245  -2.471  24.242  0.00  0.00    +0.163 C 
ENDROOT
BRANCH   1   2
ATOM      2  N   SER A   1      19.332  -1.591  24.722  0.00  0.00    -0.237 NA
ATOM      3  H   SER A   1      19.870  -1.047  24.017  0.00  0.00    +0.142 HD
ENDBRANCH   1   2
BRANCH   1   4
ATOM      4  C   SER A   1      18.737  -3.359  23.128  0.00  0.00    +0.227 C 
ATOM      5  O   SER A   1      19.706  -3.000  22.438  0.00  0.00    -0.287 OA
ENDBRANCH   1   4
BRANCH   1   6
ATOM      6  CB  SER A   1      17.069  -1.660  23.703  0.00  0.00    +0.162 C 
BRANCH   6   7
ATOM      7  OG  SER A   1      16.482  -0.935  24.824  0.00  0.00    -0.380 OA
ATOM      8  H   SER A   1      16.172  -1.581  25.507  0.00  0.00    +0.211 HD
ENDBRANCH   6   7
ENDBRANCH   1   6
TORSDOF 4
REMARK  Name = ../refined-set-2016/4q81/4q81_pocket.pdb
REMARK  139 active torsions:
REMARK  status: ('A' for Active; 'I' for Inactive)
REMARK    1  A    between atoms: _1  and  _3
REMARK    2  A    between atoms: _3  and  _4
REMARK    3  A    between atoms: _3  and  _6
REMARK    4  A    between atoms: _6  and  _7
REMARK    5  A    between atoms: _17  and  _19
REMARK    6  A    between atoms: _19  and  _20
REMARK    7  A    between atoms: _19  and  _22
REMARK    8  A    between atoms: _22  and  _23
REMARK    9  A    between atoms: _28  and  _29
REMARK   10  A    between atoms: _31  and  _33
REMARK   11  A    between atoms: _33  and  _34
REMARK   12  A    between atoms: _33  and  _36
REMARK   13  A    between atoms: _36  and  _37
REMARK   14  A    between atoms: _39  and  _41
REMARK   15  A    between atoms: _41  and  _42
REMARK   16  A    between atoms: _41  and  _44
REMARK   17  A    between atoms: _44  and  _45
REMARK   18  A    between atoms: _50  and  _52
REMARK   19  A    between atoms: _52  and  _53
REMARK   20  A    between atoms: _52  and  _55
REMARK   21  A    between atoms: _55  and  _56
REMARK   22  A    between atoms: _61  and  _63
REMARK   23  A    between atoms: _63  and  _64
REMARK   24  A    between atoms: _67  and  _69
REMARK   25  A    between atoms: _69  and  _70
REMARK   26  A    between atoms: _69  and  _72
REMARK   27  A    between atoms: _72  and  _73
REMARK   28  A    between atoms: _79  and  _81
REMARK   29  A    between atoms: _81  and  _82
REMARK   30  A    between atoms: _81  and  _84
REMARK   31  A    between atoms: _84  and  _85
REMARK   32  A    between atoms: _90  and  _92
REMARK   33  A    between atoms: _92  and  _93
REMARK   34  A    between atoms: _92  and  _95
REMARK   35  A    between atoms: _95  and  _96
REMARK   36  A    between atoms: _99  and  _101
REMARK   37  A    between atoms: _101  and  _102
REMARK   38  A    between atoms: _101  and  _104
REMARK   39  A    between atoms: _104  and  _105
REMARK   40  A    between atoms: _105  and  _106
REMARK   41  A    between atoms: _111  and  _113
REMARK   42  A    between atoms: _113  and  _114
REMARK   43  A    between atoms: _113  and  _116
REMARK   44  A    between atoms: _116  and  _117
REMARK   45  A    between atoms: _123  and  _125
REMARK   46  A    between atoms: _136  and  _139
REMARK   47  A    between atoms: _139  and  _140
REMARK   48  A    between atoms: _148  and  _149
REMARK   49  A    between atoms: _157  and  _159
REMARK   50  A    between atoms: _159  and  _160
REMARK   51  A    between atoms: _159  and  _162
REMARK   52  A    between atoms: _162  and  _163
REMARK   53  A    between atoms: _163  and  _164
REMARK   54  A    between atoms: _167  and  _169
REMARK   55  A    between atoms: _169  and  _170
REMARK   56  A    between atoms: _169  and  _172
REMARK   57  A    between atoms: _172  and  _173
REMARK   58  A    between atoms: _178  and  _180
REMARK   59  A    between atoms: _180  and  _181
REMARK   60  A    between atoms: _180  and  _183
REMARK   61  A    between atoms: _183  and  _184
REMARK   62  A    between atoms: _184  and  _185
REMARK   63  A    between atoms: _188  and  _190
REMARK   64  A    between atoms: _190  and  _191
REMARK   65  A    between atoms: _190  and  _193
REMARK   66  A    between atoms: _193  and  _194
REMARK   67  A    between atoms: _197  and  _199
REMARK   68  A    between atoms: _199  and  _200
REMARK   69  A    between atoms: _199  and  _202
REMARK   70  A    between atoms: _202  and  _203
REMARK   71  A    between atoms: _204  and  ZN_392
REMARK   72  A    between atoms: _208  and  _210
REMARK   73  A    between atoms: _210  and  _211
REMARK   74  A    between atoms: _210  and  _213
REMARK   75  A    between atoms: _213  and  _214
REMARK   76  A    between atoms: _217  and  _219
REMARK   77  A    between atoms: _219  and  _220
REMARK   78  A    between atoms: _219  and  _222
REMARK   79  A    between atoms: _225  and  _227
REMARK   80  A    between atoms: _227  and  _228
REMARK   81  A    between atoms: _227  and  _230
REMARK   82  A    between atoms: _230  and  _231
REMARK   83  A    between atoms: _236  and  _238
REMARK   84  A    between atoms: _238  and  _239
REMARK   85  A    between atoms: _238  and  _241
REMARK   86  A    between atoms: _241  and  _242
REMARK   87  A    between atoms: _248  and  _250
REMARK   88  A    between atoms: _250  and  _251
REMARK   89  A    between atoms: _250  and  _253
REMARK   90  A    between atoms: _256  and  _258
REMARK   91  A    between atoms: _258  and  _259
REMARK   92  A    between atoms: _258  and  _261
REMARK   93  A    between atoms: _261  and  _262
REMARK   94  A    between atoms: _265  and  _267
REMARK   95  A    between atoms: _267  and  _268
REMARK   96  A    between atoms: _267  and  _270
REMARK   97  A    between atoms: _273  and  _275
REMARK   98  A    between atoms: _275  and  _276
REMARK   99  A    between atoms: _275  and  _278
REMARK  100  A    between atoms: _278  and  _279
REMARK  101  A    between atoms: _281  and  _283
REMARK  102  A    between atoms: _283  and  _284
REMARK  103  A    between atoms: _283  and  _286
REMARK  104  A    between atoms: _286  and  _287
REMARK  105  A    between atoms: _290  and  _292
REMARK  106  A    between atoms: _292  and  _293
REMARK  107  A    between atoms: _292  and  _295
REMARK  108  A    between atoms: _295  and  _296
REMARK  109  A    between atoms: _299  and  _301
REMARK  110  A    between atoms: _301  and  _302
REMARK  111  A    between atoms: _301  and  _304
REMARK  112  A    between atoms: _304  and  _305
REMARK  113  A    between atoms: _309  and  _310
REMARK  114  A    between atoms: _316  and  _317
REMARK  115  A    between atoms: _322  and  _324
REMARK  116  A    between atoms: _324  and  _325
REMARK  117  A    between atoms: _324  and  _327
REMARK  118  A    between atoms: _327  and  _328
REMARK  119  A    between atoms: _331  and  _333
REMARK  120  A    between atoms: _333  and  _334
REMARK  121  A    between atoms: _333  and  _336
REMARK  122  A    between atoms: _336  and  _337
REMARK  123  A    between atoms: _340  and  _342
REMARK  124  A    between atoms: _342  and  _343
REMARK  125  A    between atoms: _342  and  _345
REMARK  126  A    between atoms: _348  and  _350
REMARK  127  A    between atoms: _350  and  _351
REMARK  128  A    between atoms: _350  and  _353
REMARK  129  A    between atoms: _353  and  _354
REMARK  130  A    between atoms: _364  and  _366
REMARK  131  A    between atoms: _366  and  _367
REMARK  132  A    between atoms: _366  and  _369
REMARK  133  A    between atoms: _369  and  _370
REMARK  134  A    between atoms: _375  and  _377
REMARK  135  A    between atoms: _377  and  _378
REMARK  136  A    between atoms: _377  and  _380
REMARK  137  A    between atoms: _380  and  _381
REMARK  138  A    between atoms: _381  and  _382
REMARK  139  A    between atoms: _382  and  _383
REMARK                            x       y       z     vdW  Elec       q    Type
REMARK                         _______ _______ _______ _____ _____    ______ ____
ROOT
ATOM      1  CB  ASN A   1      18.651   1.792   5.243  0.00  0.00    +0.110 C 
ENDROOT
BRANCH   1   2
ATOM      2  CG  ASN A   1      18.312   0.942   6.476  0.00  0.00    +0.221 C 
ATOM      3  ND2 ASN A   1      17.602   1.518   7.411  0.00  0.00    -0.329 N 
ATOM      4 HD21 ASN A   1      17.299   0.974   8.244  0.00  0.00    +0.145 HD
ATOM      5 HD22 ASN A   1      17.340   2.521   7.322  0.00  0.00    +0.145 HD
ATOM      6  OD1 ASN A   1      18.660  -0.225   6.504  0.00  0.00    -0.275 OA
ENDBRANCH   1   2
BRANCH   1   7
ATOM      7  CA  ASN A   1      19.017   0.894   4.024  0.00  0.00    +0.142 C 
BRANCH   7   8
ATOM      8  N   ASN A   1      17.865   0.063   3.599  0.00  0.00    -0.239 NA
ATOM      9  H   ASN A   1      17.308  -0.465   4.301  0.00  0.00    +0.142 HD
ENDBRANCH   7   8
BRANCH   7  10
ATOM     10  C   ASN A   1      20.293   0.147   4.246  0.00  0.00    +0.225 C 
ATOM     11  O   ASN A   1      21.300   0.646   4.820  0.00  0.00    -0.287 OA
ENDBRANCH   7  10
ENDBRANCH   1   7
TORSDOF 4
REMARK  Name = ../refined-set-2016/4q81/4q81_pocket.pdb
REMARK  139 active torsions:
REMARK  status: ('A' for Active; 'I' for Inactive)
REMARK    1  A    between atoms: _1  and  _3
REMARK    2  A    between atoms: _3  and  _4
REMARK    3  A    between atoms: _3  and  _6
REMARK    4  A    between atoms: _6  and  _7
REMARK    5  A    between atoms: _17  and  _19
REMARK    6  A    between atoms: _19  and  _20
REMARK    7  A    between atoms: _19  and  _22
REMARK    8  A    between atoms: _22  and  _23
REMARK    9  A    between atoms: _28  and  _29
REMARK   10  A    between atoms: _31  and  _33
REMARK   11  A    between atoms: _33  and  _34
REMARK   12  A    between atoms: _33  and  _36
REMARK   13  A    between atoms: _36  and  _37
REMARK   14  A    between atoms: _39  and  _41
REMARK   15  A    between atoms: _41  and  _42
REMARK   16  A    between atoms: _41  and  _44
REMARK   17  A    between atoms: _44  and  _45
REMARK   18  A    between atoms: _50  and  _52
REMARK   19  A    between atoms: _52  and  _53
REMARK   20  A    between atoms: _52  and  _55
REMARK   21  A    between atoms: _55  and  _56
REMARK   22  A    between atoms: _61  and  _63
REMARK   23  A    between atoms: _63  and  _64
REMARK   24  A    between atoms: _67  and  _69
REMARK   25  A    between atoms: _69  and  _70
REMARK   26  A    between atoms: _69  and  _72
REMARK   27  A    between atoms: _72  and  _73
REMARK   28  A    between atoms: _79  and  _81
REMARK   29  A    between atoms: _81  and  _82
REMARK   30  A    between atoms: _81  and  _84
REMARK   31  A    between atoms: _84  and  _85
REMARK   32  A    between atoms: _90  and  _92
REMARK   33  A    between atoms: _92  and  _93
REMARK   34  A    between atoms: _92  and  _95
REMARK   35  A    between atoms: _95  and  _96
REMARK   36  A    between atoms: _99  and  _101
REMARK   37  A    between atoms: _101  and  _102
REMARK   38  A    between atoms: _101  and  _104
REMARK   39  A    between atoms: _104  and  _105
REMARK   40  A    between atoms: _105  and  _106
REMARK   41  A    between atoms: _111  and  _113
REMARK   42  A    between atoms: _113  and  _114
REMARK   43  A    between atoms: _113  and  _116
REMARK   44  A    between atoms: _116  and  _117
REMARK   45  A    between atoms: _123  and  _125
REMARK   46  A    between atoms: _136  and  _139
REMARK   47  A    between atoms: _139  and  _140
REMARK   48  A    between atoms: _148  and  _149
REMARK   49  A    between atoms: _157  and  _159
REMARK   50  A    between atoms: _159  and  _160
REMARK   51  A    between atoms: _159  and  _162
REMARK   52  A    between atoms: _162  and  _163
REMARK   53  A    between atoms: _163  and  _164
REMARK   54  A    between atoms: _167  and  _169
REMARK   55  A    between atoms: _169  and  _170
REMARK   56  A    between atoms: _169  and  _172
REMARK   57  A    between atoms: _172  and  _173
REMARK   58  A    between atoms: _178  and  _180
REMARK   59  A    between atoms: _180  and  _181
REMARK   60  A    between atoms: _180  and  _183
REMARK   61  A    between atoms: _183  and  _184
REMARK   62  A    between atoms: _184  and  _185
REMARK   63  A    between atoms: _188  and  _190
REMARK   64  A    between atoms: _190  and  _191
REMARK   65  A    between atoms: _190  and  _193
REMARK   66  A    between atoms: _193  and  _194
REMARK   67  A    between atoms: _197  and  _199
REMARK   68  A    between atoms: _199  and  _200
REMARK   69  A    between atoms: _199  and  _202
REMARK   70  A    between atoms: _202  and  _203
REMARK   71  A    between atoms: _204  and  ZN_392
REMARK   72  A    between atoms: _208  and  _210
REMARK   73  A    between atoms: _210  and  _211
REMARK   74  A    between atoms: _210  and  _213
REMARK   75  A    between atoms: _213  and  _214
REMARK   76  A    between atoms: _217  and  _219
REMARK   77  A    between atoms: _219  and  _220
REMARK   78  A    between atoms: _219  and  _222
REMARK   79  A    between atoms: _225  and  _227
REMARK   80  A    between atoms: _227  and  _228
REMARK   81  A    between atoms: _227  and  _230
REMARK   82  A    between atoms: _230  and  _231
REMARK   83  A    between atoms: _236  and  _238
REMARK   84  A    between atoms: _238  and  _239
REMARK   85  A    between atoms: _238  and  _241
REMARK   86  A    between atoms: _241  and  _242
REMARK   87  A    between atoms: _248  and  _250
REMARK   88  A    between atoms: _250  and  _251
REMARK   89  A    between atoms: _250  and  _253
REMARK   90  A    between atoms: _256  and  _258
REMARK   91  A    between atoms: _258  and  _259
REMARK   92  A    between atoms: _258  and  _261
REMARK   93  A    between atoms: _261  and  _262
REMARK   94  A    between atoms: _265  and  _267
REMARK   95  A    between atoms: _267  and  _268
REMARK   96  A    between atoms: _267  and  _270
REMARK   97  A    between atoms: _273  and  _275
REMARK   98  A    between atoms: _275  and  _276
REMARK   99  A    between atoms: _275  and  _278
REMARK  100  A    between atoms: _278  and  _279
REMARK  101  A    between atoms: _281  and  _283
REMARK  102  A    between atoms: _283  and  _284
REMARK  103  A    between atoms: _283  and  _286
REMARK  104  A    between atoms: _286  and  _287
REMARK  105  A    between atoms: _290  and  _292
REMARK  106  A    between atoms: _292  and  _293
REMARK  107  A    between atoms: _292  and  _295
REMARK  108  A    between atoms: _295  and  _296
REMARK  109  A    between atoms: _299  and  _301
REMARK  110  A    between atoms: _301  and  _302
REMARK  111  A    between atoms: _301  and  _304
REMARK  112  A    between atoms: _304  and  _305
REMARK  113  A    between atoms: _309  and  _310
REMARK  114  A    between atoms: _316  and  _317
REMARK  115  A    between atoms: _322  and  _324
REMARK  116  A    between atoms: _324  and  _325
REMARK  117  A    between atoms: _324  and  _327
REMARK  118  A    between atoms: _327  and  _328
REMARK  119  A    between atoms: _331  and  _333
REMARK  120  A    between atoms: _333  and  _334
REMARK  121  A    between atoms: _333  and  _336
REMARK  122  A    between atoms: _336  and  _337
REMARK  123  A    between atoms: _340  and  _342
REMARK  124  A    between atoms: _342  and  _343
REMARK  125  A    between atoms: _342  and  _345
REMARK  126  A    between atoms: _348  and  _350
REMARK  127  A    between atoms: _350  and  _351
REMARK  128  A    between atoms: _350  and  _353
REMARK  129  A    between atoms: _353  and  _354
REMARK  130  A    between atoms: _364  and  _366
REMARK  131  A    between atoms: _366  and  _367
REMARK  132  A    between atoms: _366  and  _369
REMARK  133  A    between atoms: _369  and  _370
REMARK  134  A    between atoms: _375  and  _377
REMARK  135  A    between atoms: _377  and  _378
REMARK  136  A    between atoms: _377  and  _380
REMARK  137  A    between atoms: _380  and  _381
REMARK  138  A    between atoms: _381  and  _382
REMARK  139  A    between atoms: _382  and  _383
REMARK                            x       y       z     vdW  Elec       q    Type
REMARK                         _______ _______ _______ _____ _____    ______ ____
ROOT
ATOM      1  CA  PHE A   3      13.854  -1.772   5.414  0.00  0.00    +0.153 C 
ENDROOT
BRANCH   1   3
ATOM      2  C   ALA A   2      15.959  -2.710   6.193  0.00  0.00    +0.241 C 
ATOM      3  N   PHE A   3      14.627  -2.747   6.180  0.00  0.00    -0.297 N 
ATOM      4  H   PHE A   3      14.130  -3.481   6.724  0.00  0.00    +0.150 HD
ATOM      5  O   ALA A   2      16.636  -2.120   5.348  0.00  0.00    -0.273 OA
BRANCH   2   6
ATOM      6  CA  ALA A   2      16.666  -3.481   7.280  0.00  0.00    +0.149 C 
ATOM      7  CB  ALA A   2      15.994  -3.278   8.670  0.00  0.00    +0.031 C 
BRANCH   6  10
ATOM      8  C   HIS A   1      19.062  -3.684   7.724  0.00  0.00    +0.239 C 
ATOM      9  O   HIS A   1      18.942  -4.811   8.276  0.00  0.00    -0.274 OA
ATOM     10  N   ALA A   2      18.051  -2.998   7.271  0.00  0.00    -0.297 N 
ATOM     11  H   ALA A   2      18.237  -2.052   6.880  0.00  0.00    +0.150 HD
BRANCH   8  12
ATOM     12  CA  HIS A   1      20.453  -3.039   7.549  0.00  0.00    +0.151 C 
BRANCH  12  13
ATOM     13  N   HIS A   1      20.565  -2.388   6.222  0.00  0.00    -0.238 NA
ATOM     14  H   HIS A   1      19.889  -1.635   5.983  0.00  0.00    +0.142 HD
ENDBRANCH  12  13
BRANCH  12  15
ATOM     15  CB  HIS A   1      20.759  -2.007   8.647  0.00  0.00    +0.074 C 
BRANCH  15  16
ATOM     16  CG  HIS A   1      22.063  -1.275   8.428  0.00  0.00    +0.082 A 
ATOM     17  ND1 HIS A   1      23.287  -1.890   8.592  0.00  0.00    -0.227 NA
ATOM     18  CE1 HIS A   1      24.256  -1.012   8.358  0.00  0.00    +0.199 A 
ATOM     19  NE2 HIS A   1      23.696   0.149   8.053  0.00  0.00    -0.221 NA
ATOM     20  CD2 HIS A   1      22.323   0.005   8.075  0.00  0.00    +0.115 A 
ENDBRANCH  15  16
ENDBRANCH  12  15
ENDBRANCH   8  12
ENDBRANCH   6  10
ENDBRANCH   2   6
ENDBRANCH   1   3
BRANCH   1  21
ATOM     21  C   PHE A   3      13.019  -0.883   6.309  0.00  0.00    +0.241 C 
ATOM     22  O   PHE A   3      12.373  -1.372   7.291  0.00  0.00    -0.273 OA
ATOM     23  N   ASN A   4      12.903   0.402   5.897  0.00  0.00    -0.298 N 
ATOM     24  H   ASN A   4      13.411   0.722   5.047  0.00  0.00    +0.150 HD
BRANCH  23  25
ATOM     25  CA  ASN A   4      12.084   1.322   6.627  0.00  0.00    +0.146 C 
BRANCH  25  26
ATOM     26  C   ASN A   4      10.854   1.687   5.831  0.00  0.00    +0.227 C 
ATOM     27  O   ASN A   4      10.995   2.071   4.677  0.00  0.00    -0.286 OA
ENDBRANCH  25  26
BRANCH  25  28
ATOM     28  CB  ASN A   4      12.855   2.629   6.976  0.00  0.00    +0.112 C 
BRANCH  28  29
ATOM     29  CG  ASN A   4      13.961   2.428   7.951  0.00  0.00    +0.222 C 
ATOM     30  OD1 ASN A   4      14.006   1.420   8.668  0.00  0.00    -0.275 OA
ATOM     31  ND2 ASN A   4      14.907   3.379   7.999  0.00  0.00    -0.329 N 
ATOM     32 HD21 ASN A   4      15.710   3.282   8.653  0.00  0.00    +0.145 HD
ATOM     33 HD22 ASN A   4      14.837   4.213   7.382  0.00  0.00    +0.145 HD
ENDBRANCH  28  29
ENDBRANCH  25  28
ENDBRANCH  23  25
ENDBRANCH   1  21
BRANCH   1  34
ATOM     34  CB  PHE A   3      13.048  -2.396   4.261  0.00  0.00    +0.055 C 
BRANCH  34  35
ATOM     35  CG  PHE A   3      11.984  -3.344   4.719  0.00  0.00    -0.020 A 
ATOM     36  CD2 PHE A   3      10.712  -2.876   5.072  0.00  0.00    -0.004 A 
ATOM     37  CE2 PHE A   3       9.707  -3.734   5.503  0.00  0.00    -0.000 A 
ATOM     38  CZ  PHE A   3       9.978  -5.106   5.648  0.00  0.00    -0.000 A 
ATOM     39  CE1 PHE A   3      11.274  -5.588   5.351  0.00  0.00    -0.000 A 
ATOM     40  CD1 PHE A   3      12.263  -4.741   4.844  0.00  0.00    -0.004 A 
ENDBRANCH  34  35
ENDBRANCH   1  34
TORSDOF 14
REMARK  Name = ../refined-set-2016/4q81/4q81_pocket.pdb
REMARK  139 active torsions:
REMARK  status: ('A' for Active; 'I' for Inactive)
REMARK    1  A    between atoms: _1  and  _3
REMARK    2  A    between atoms: _3  and  _4
REMARK    3  A    between atoms: _3  and  _6
REMARK    4  A    between atoms: _6  and  _7
REMARK    5  A    between atoms: _17  and  _19
REMARK    6  A    between atoms: _19  and  _20
REMARK    7  A    between atoms: _19  and  _22
REMARK    8  A    between atoms: _22  and  _23
REMARK    9  A    between atoms: _28  and  _29
REMARK   10  A    between atoms: _31  and  _33
REMARK   11  A    between atoms: _33  and  _34
REMARK   12  A    between atoms: _33  and  _36
REMARK   13  A    between atoms: _36  and  _37
REMARK   14  A    between atoms: _39  and  _41
REMARK   15  A    between atoms: _41  and  _42
REMARK   16  A    between atoms: _41  and  _44
REMARK   17  A    between atoms: _44  and  _45
REMARK   18  A    between atoms: _50  and  _52
REMARK   19  A    between atoms: _52  and  _53
REMARK   20  A    between atoms: _52  and  _55
REMARK   21  A    between atoms: _55  and  _56
REMARK   22  A    between atoms: _61  and  _63
REMARK   23  A    between atoms: _63  and  _64
REMARK   24  A    between atoms: _67  and  _69
REMARK   25  A    between atoms: _69  and  _70
REMARK   26  A    between atoms: _69  and  _72
REMARK   27  A    between atoms: _72  and  _73
REMARK   28  A    between atoms: _79  and  _81
REMARK   29  A    between atoms: _81  and  _82
REMARK   30  A    between atoms: _81  and  _84
REMARK   31  A    between atoms: _84  and  _85
REMARK   32  A    between atoms: _90  and  _92
REMARK   33  A    between atoms: _92  and  _93
REMARK   34  A    between atoms: _92  and  _95
REMARK   35  A    between atoms: _95  and  _96
REMARK   36  A    between atoms: _99  and  _101
REMARK   37  A    between atoms: _101  and  _102
REMARK   38  A    between atoms: _101  and  _104
REMARK   39  A    between atoms: _104  and  _105
REMARK   40  A    between atoms: _105  and  _106
REMARK   41  A    between atoms: _111  and  _113
REMARK   42  A    between atoms: _113  and  _114
REMARK   43  A    between atoms: _113  and  _116
REMARK   44  A    between atoms: _116  and  _117
REMARK   45  A    between atoms: _123  and  _125
REMARK   46  A    between atoms: _136  and  _139
REMARK   47  A    between atoms: _139  and  _140
REMARK   48  A    between atoms: _148  and  _149
REMARK   49  A    between atoms: _157  and  _159
REMARK   50  A    between atoms: _159  and  _160
REMARK   51  A    between atoms: _159  and  _162
REMARK   52  A    between atoms: _162  and  _163
REMARK   53  A    between atoms: _163  and  _164
REMARK   54  A    between atoms: _167  and  _169
REMARK   55  A    between atoms: _169  and  _170
REMARK   56  A    between atoms: _169  and  _172
REMARK   57  A    between atoms: _172  and  _173
REMARK   58  A    between atoms: _178  and  _180
REMARK   59  A    between atoms: _180  and  _181
REMARK   60  A    between atoms: _180  and  _183
REMARK   61  A    between atoms: _183  and  _184
REMARK   62  A    between atoms: _184  and  _185
REMARK   63  A    between atoms: _188  and  _190
REMARK   64  A    between atoms: _190  and  _191
REMARK   65  A    between atoms: _190  and  _193
REMARK   66  A    between atoms: _193  and  _194
REMARK   67  A    between atoms: _197  and  _199
REMARK   68  A    between atoms: _199  and  _200
REMARK   69  A    between atoms: _199  and  _202
REMARK   70  A    between atoms: _202  and  _203
REMARK   71  A    between atoms: _204  and  ZN_392
REMARK   72  A    between atoms: _208  and  _210
REMARK   73  A    between atoms: _210  and  _211
REMARK   74  A    between atoms: _210  and  _213
REMARK   75  A    between atoms: _213  and  _214
REMARK   76  A    between atoms: _217  and  _219
REMARK   77  A    between atoms: _219  and  _220
REMARK   78  A    between atoms: _219  and  _222
REMARK   79  A    between atoms: _225  and  _227
REMARK   80  A    between atoms: _227  and  _228
REMARK   81  A    between atoms: _227  and  _230
REMARK   82  A    between atoms: _230  and  _231
REMARK   83  A    between atoms: _236  and  _238
REMARK   84  A    between atoms: _238  and  _239
REMARK   85  A    between atoms: _238  and  _241
REMARK   86  A    between atoms: _241  and  _242
REMARK   87  A    between atoms: _248  and  _250
REMARK   88  A    between atoms: _250  and  _251
REMARK   89  A    between atoms: _250  and  _253
REMARK   90  A    between atoms: _256  and  _258
REMARK   91  A    between atoms: _258  and  _259
REMARK   92  A    between atoms: _258  and  _261
REMARK   93  A    between atoms: _261  and  _262
REMARK   94  A    between atoms: _265  and  _267
REMARK   95  A    between atoms: _267  and  _268
REMARK   96  A    between atoms: _267  and  _270
REMARK   97  A    between atoms: _273  and  _275
REMARK   98  A    between atoms: _275  and  _276
REMARK   99  A    between atoms: _275  and  _278
REMARK  100  A    between atoms: _278  and  _279
REMARK  101  A    between atoms: _281  and  _283
REMARK  102  A    between atoms: _283  and  _284
REMARK  103  A    between atoms: _283  and  _286
REMARK  104  A    between atoms: _286  and  _287
REMARK  105  A    between atoms: _290  and  _292
REMARK  106  A    between atoms: _292  and  _293
REMARK  107  A    between atoms: _292  and  _295
REMARK  108  A    between atoms: _295  and  _296
REMARK  109  A    between atoms: _299  and  _301
REMARK  110  A    between atoms: _301  and  _302
REMARK  111  A    between atoms: _301  and  _304
REMARK  112  A    between atoms: _304  and  _305
REMARK  113  A    between atoms: _309  and  _310
REMARK  114  A    between atoms: _316  and  _317
REMARK  115  A    between atoms: _322  and  _324
REMARK  116  A    between atoms: _324  and  _325
REMARK  117  A    between atoms: _324  and  _327
REMARK  118  A    between atoms: _327  and  _328
REMARK  119  A    between atoms: _331  and  _333
REMARK  120  A    between atoms: _333  and  _334
REMARK  121  A    between atoms: _333  and  _336
REMARK  122  A    between atoms: _336  and  _337
REMARK  123  A    between atoms: _340  and  _342
REMARK  124  A    between atoms: _342  and  _343
REMARK  125  A    between atoms: _342  and  _345
REMARK  126  A    between atoms: _348  and  _350
REMARK  127  A    between atoms: _350  and  _351
REMARK  128  A    between atoms: _350  and  _353
REMARK  129  A    between atoms: _353  and  _354
REMARK  130  A    between atoms: _364  and  _366
REMARK  131  A    between atoms: _366  and  _367
REMARK  132  A    between atoms: _366  and  _369
REMARK  133  A    between atoms: _369  and  _370
REMARK  134  A    between atoms: _375  and  _377
REMARK  135  A    between atoms: _377  and  _378
REMARK  136  A    between atoms: _377  and  _380
REMARK  137  A    between atoms: _380  and  _381
REMARK  138  A    between atoms: _381  and  _382
REMARK  139  A    between atoms: _382  and  _383
REMARK                            x       y       z     vdW  Elec       q    Type
REMARK                         _______ _______ _______ _____ _____    ______ ____
ROOT
ATOM      1  C   UNK A   4      10.943  -1.490  10.361  0.00  0.00    +0.000 C 
ATOM      2  C   UNK A   4      10.831  -2.763  11.160  0.00  0.00    +0.000 C 
ATOM      3  O   UNK A   4      10.190  -2.787  12.207  0.00  0.00    +0.000 OA
ATOM      4  N   VAL A   5      11.531  -3.799  10.673  0.00  0.00    +0.000 N 
ATOM      5  CA  VAL A   5      11.514  -5.089  11.328  0.00  0.00    +0.000 C 
ATOM      6  C   VAL A   5      12.962  -5.539  11.542  0.00  0.00    +0.000 C 
ATOM      7  N   UNK A   6      13.102  -6.492  12.471  0.00  0.00    +0.000 N 
ATOM      8  H   UNK A   6      12.285  -6.666  13.091  0.00  0.00    +0.000 HD
ATOM      9  C   UNK A   6      14.294  -7.315  12.701  0.00  0.00    +0.000 C 
ATOM     10  C   UNK A   6      14.905  -7.077  14.066  0.00  0.00    +0.000 C 
ATOM     11  C   UNK A   6      15.220  -5.623  14.345  0.00  0.00    +0.000 A 
ATOM     12  C   UNK A   6      14.446  -4.571  14.738  0.00  0.00    +0.000 A 
ATOM     13  N   UNK A   6      15.258  -3.455  14.764  0.00  0.00    +0.000 N 
ATOM     14 ZN   UNK A   6      14.613  -1.549  15.449  0.00  0.00    +0.000 Zn
ATOM     15  N   UNK A   4      13.764  -0.844  13.710  0.00  0.00    +0.000 N 
ATOM     16  C   UNK A   4      13.217   0.363  13.583  0.00  0.00    +0.000 A 
ATOM     17  N   UNK A   4      12.711   0.465  12.371  0.00  0.00    +0.000 NA
ATOM     18  C   UNK A   4      12.940  -0.724  11.689  0.00  0.00    +0.000 A 
ATOM     19  C   UNK A   4      13.596  -1.536  12.543  0.00  0.00    +0.000 A 
ATOM     20  C   UNK A   6      16.487  -3.822  14.392  0.00  0.00    +0.000 A 
ATOM     21  N   UNK A   6      16.453  -5.093  14.016  0.00  0.00    +0.000 NA
ATOM     22  O   VAL A   5      13.899  -5.089  10.865  0.00  0.00    +0.000 OA
ATOM     23  H   VAL A   5      12.096  -3.672   9.809  0.00  0.00    +0.000 HD
ATOM     24  C   UNK A   4      12.406  -0.998  10.327  0.00  0.00    +0.000 C 
ENDROOT
BRANCH  14  25
ATOM     25  N   UNK A   6      12.977  -2.388  16.635  0.00  0.00    +0.000 N 
ATOM     26  C   UNK A   6      13.296  -3.312  17.528  0.00  0.00    +0.000 A 
ATOM     27  N   UNK A   6      12.173  -3.812  18.049  0.00  0.00    +0.000 NA
ATOM     28  C   UNK A   6      11.112  -3.115  17.483  0.00  0.00    +0.000 A 
ATOM     29  C   UNK A   6      11.608  -2.244  16.582  0.00  0.00    +0.000 A 
BRANCH  29  30
ATOM     30  C   UNK A   6      10.911  -1.262  15.691  0.00  0.00    +0.000 C 
BRANCH  30  31
ATOM     31  C   UNK A   6       9.396  -1.531  15.661  0.00  0.00    +0.000 C 
BRANCH  31  32
ATOM     32  C   UNK A   6       8.732  -0.375  14.969  0.00  0.00    +0.000 C 
ATOM     33  N   UNK A   4       7.729   0.223  15.639  0.00  0.00    +0.000 N 
ATOM     34  H   UNK A   4       7.409  -0.203  16.532  0.00  0.00    +0.000 HD
ATOM     35  O   UNK A   6       9.155   0.022  13.837  0.00  0.00    +0.000 OA
BRANCH  33  36
ATOM     36  C   UNK A   4       7.043   1.485  15.159  0.00  0.00    +0.000 C 
BRANCH  36  37
ATOM     37  C   UNK A   4       7.620   2.633  15.923  0.00  0.00    +0.000 C 
ATOM     38  O   UNK A   4       7.521   2.639  17.164  0.00  0.00    +0.000 OA
ATOM     39  N   VAL A   5       8.438   3.446  15.211  0.00  0.00    +0.000 N 
ATOM     40  H   VAL A   5       8.492   3.343  14.178  0.00  0.00    +0.000 HD
BRANCH  39  41
ATOM     41  CA  VAL A   5       9.257   4.481  15.889  0.00  0.00    +0.000 C 
BRANCH  41  42
ATOM     42  C   VAL A   5       8.545   5.834  15.900  0.00  0.00    +0.000 C 
ATOM     43  N   UNK A   6       8.430   6.423  17.098  0.00  0.00    +0.000 N 
ATOM     44  H   UNK A   6       8.853   5.965  17.930  0.00  0.00    +0.000 HD
ATOM     45  O   VAL A   5       8.062   6.287  14.843  0.00  0.00    +0.000 OA
BRANCH  43  46
ATOM     46  C   UNK A   6       7.707   7.727  17.270  0.00  0.00    +0.000 C 
BRANCH  46  47
ATOM     47  C   UNK A   6       8.593   8.691  18.017  0.00  0.00    +0.000 C 
ATOM     48  O   UNK A   6       9.295   8.302  18.902  0.00  0.00    +0.000 OA
ENDBRANCH  46  47
BRANCH  46  49
ATOM     49  C   UNK A   6       6.387   7.561  18.105  0.00  0.00    +0.000 C 
BRANCH  49  50
ATOM     50  C   UNK A   6       5.501   6.424  17.664  0.00  0.00    +0.000 A 
ATOM     51  N   UNK A   6       5.836   5.096  17.912  0.00  0.00    +0.000 NA
ATOM     52  C   UNK A   6       4.890   4.296  17.428  0.00  0.00    +0.000 A 
ATOM     53  N   UNK A   6       3.927   5.049  16.911  0.00  0.00    +0.000 NA
ATOM     54  C   UNK A   6       4.286   6.391  17.041  0.00  0.00    +0.000 A 
ENDBRANCH  49  50
ENDBRANCH  46  49
ENDBRANCH  43  46
ENDBRANCH  41  42
BRANCH  41  55
ATOM     55  CB  VAL A   5      10.554   4.664  15.141  0.00  0.00    +0.000 C 
ATOM     56  CG2 VAL A   5      11.413   5.762  15.785  0.00  0.00    +0.000 C 
ATOM     57  CG1 VAL A   5      11.326   3.319  15.004  0.00  0.00    +0.000 C 
ENDBRANCH  41  55
ENDBRANCH  39  41
ENDBRANCH  36  37
BRANCH  36  58
ATOM     58  C   UNK A   4       5.503   1.375  15.331  0.00  0.00    +0.000 C 
BRANCH  58  59
ATOM     59  C   UNK A   4       4.874   0.250  14.468  0.00  0.00    +0.000 C 
ATOM     60  C   UNK A   4       4.080  -0.648  15.274  0.00  0.00    +0.000 C 
ATOM     61  C   UNK A   4       4.030   0.923  13.356  0.00  0.00    +0.000 C 
ENDBRANCH  58  59
ENDBRANCH  36  58
ENDBRANCH  33  36
ENDBRANCH  31  32
BRANCH  31  62
ATOM     62  N   UNK A   6       9.138  -2.753  14.874  0.00  0.00    +0.000 N 
ATOM     63  C   LEU A   2       8.516  -3.830  15.358  0.00  0.00    +0.000 C 
ATOM     64  O   LEU A   2       8.127  -3.885  16.514  0.00  0.00    +0.000 OA
ATOM     65  H   UNK A   6       9.460  -2.776  13.885  0.00  0.00    +0.000 HD
BRANCH  63  66
ATOM     66  CA  LEU A   2       8.294  -4.964  14.349  0.00  0.00    +0.000 C 
BRANCH  66  67
ATOM     67  N   LEU A   2       8.644  -6.192  14.991  0.00  0.00    +0.000 N 
ATOM     68  H   LEU A   2       7.915  -6.648  15.576  0.00  0.00    +0.000 HD
ATOM     69  C   GLU A   1       9.813  -6.795  14.904  0.00  0.00    +0.000 C 
ATOM     70  O   GLU A   1      10.740  -6.395  14.166  0.00  0.00    +0.000 OA
BRANCH  69  71
ATOM     71  CA  GLU A   1       9.956  -8.074  15.692  0.00  0.00    +0.000 C 
BRANCH  71  72
ATOM     72  N   GLU A   1      10.497  -9.080  14.799  0.00  0.00    +0.000 NA
ATOM     73  H   GLU A   1      11.136  -8.800  14.028  0.00  0.00    +0.000 HD
ENDBRANCH  71  72
BRANCH  71  74
ATOM     74  CB  GLU A   1      10.963  -7.852  16.869  0.00  0.00    +0.000 C 
BRANCH  74  75
ATOM     75  CG  GLU A   1      10.437  -6.881  17.929  0.00  0.00    +0.000 C 
BRANCH  75  76
ATOM     76  CD  GLU A   1      11.360  -6.830  19.132  0.00  0.00    +0.000 C 
ATOM     77  OE2 GLU A   1      11.485  -5.738  19.778  0.00  0.00    +0.000 OA
ATOM     78  OE1 GLU A   1      11.939  -7.867  19.477  0.00  0.00    +0.000 OA
ENDBRANCH  75  76
ENDBRANCH  74  75
ENDBRANCH  71  74
ENDBRANCH  69  71
ENDBRANCH  66  67
BRANCH  66  79
ATOM     79  CB  LEU A   2       6.787  -5.020  13.893  0.00  0.00    +0.000 C 
BRANCH  79  80
ATOM     80  CG  LEU A   2       6.060  -3.665  13.606  0.00  0.00    +0.000 C 
ATOM     81  CD2 LEU A   2       4.580  -4.014  13.275  0.00  0.00    +0.000 C 
ATOM     82  CD1 LEU A   2       6.575  -3.100  12.337  0.00  0.00    +0.000 C 
ENDBRANCH  79  80
ENDBRANCH  66  79
ENDBRANCH  63  66
ENDBRANCH  31  62
ENDBRANCH  30  31
ENDBRANCH  29  30
ENDBRANCH  14  25
BRANCH   1  84
ATOM     83  C   UNK A   3       9.501   0.504  10.248  0.00  0.00    +0.000 C 
ATOM     84  N   UNK A   4      10.014  -0.519  10.947  0.00  0.00    +0.000 N 
ATOM     85  H   UNK A   4       9.742  -0.628  11.945  0.00  0.00    +0.000 HD
ATOM     86  O   UNK A   3       9.772   0.700   9.072  0.00  0.00    +0.000 OA
BRANCH  83  87
ATOM     87  C   UNK A   3       8.554   1.362  11.025  0.00  0.00    +0.000 C 
BRANCH  87  90
ATOM     88  C   LEU A   2       8.618   3.784  11.166  0.00  0.00    +0.000 C 
ATOM     89  O   LEU A   2       8.481   3.825  12.410  0.00  0.00    +0.000 OA
ATOM     90  N   UNK A   3       8.418   2.701  10.424  0.00  0.00    +0.000 N 
ATOM     91  H   UNK A   3       8.166   2.798   9.420  0.00  0.00    +0.000 HD
BRANCH  88  92
ATOM     92  CA  LEU A   2       8.840   5.063  10.405  0.00  0.00    +0.000 C 
BRANCH  92  94
ATOM     93  C   GLU A   1       8.369   7.399  10.753  0.00  0.00    +0.000 C 
ATOM     94  N   LEU A   2       8.510   6.187  11.283  0.00  0.00    +0.000 N 
ATOM     95  H   LEU A   2       8.388   6.040  12.305  0.00  0.00    +0.000 HD
ATOM     96  O   GLU A   1       8.465   7.595   9.559  0.00  0.00    +0.000 OA
BRANCH  93  97
ATOM     97  CA  GLU A   1       8.068   8.566  11.700  0.00  0.00    +0.000 C 
BRANCH  97  98
ATOM     98  CB  GLU A   1       9.336   9.268  12.195  0.00  0.00    +0.000 C 
ATOM     99  CG2 GLU A   1      10.140   8.480  13.244  0.00  0.00    +0.000 C 
BRANCH  98 100
ATOM    100  CG1 GLU A   1      10.245   9.598  11.002  0.00  0.00    +0.000 C 
ATOM    101  CD1 GLU A   1      11.395  10.596  11.430  0.00  0.00    +0.000 C 
ENDBRANCH  98 100
ENDBRANCH  97  98
BRANCH  97 102
ATOM    102  N   GLU A   1       7.180   8.158  12.811  0.00  0.00    +0.000 NA
ATOM    103  H   GLU A   1       7.535   7.514  13.547  0.00  0.00    +0.000 HD
ENDBRANCH  97 102
ENDBRANCH  93  97
ENDBRANCH  92  94
BRANCH  92 104
ATOM    104  CB  LEU A   2      10.301   5.106   9.963  0.00  0.00    +0.000 C 
BRANCH 104 105
ATOM    105  CG  LEU A   2      11.310   5.089  11.079  0.00  0.00    +0.000 C 
BRANCH 105 106
ATOM    106  CD  LEU A   2      12.056   3.737  11.211  0.00  0.00    +0.000 C 
ATOM    107  OE1 LEU A   2      11.456   2.695  11.358  0.00  0.00    +0.000 OA
ATOM    108  NE2 LEU A   2      13.384   3.765  11.047  0.00  0.00    +0.000 N 
ATOM    109 HE21 LEU A   2      13.926   2.878  11.044  0.00  0.00    +0.000 HD
ATOM    110 HE22 LEU A   2      13.874   4.674  10.923  0.00  0.00    +0.000 HD
ENDBRANCH 105 106
ENDBRANCH 104 105
ENDBRANCH  92 104
ENDBRANCH  88  92
ENDBRANCH  87  90
BRANCH  87 111
ATOM    111  C   UNK A   3       7.201   0.655  11.285  0.00  0.00    +0.000 C 
BRANCH 111 112
ATOM    112  C   UNK A   3       6.482   0.183  10.076  0.00  0.00    +0.000 A 
ATOM    113  C   UNK A   3       5.364   0.911   9.636  0.00  0.00    +0.000 A 
ATOM    114  C   UNK A   3       4.612   0.407   8.493  0.00  0.00    +0.000 A 
ATOM    115  C   UNK A   3       5.082  -0.759   7.806  0.00  0.00    +0.000 A 
ATOM    116  C   UNK A   3       6.196  -1.438   8.235  0.00  0.00    +0.000 A 
ATOM    117  C   UNK A   3       6.920  -0.945   9.356  0.00  0.00    +0.000 A 
ENDBRANCH 111 112
ENDBRANCH  87 111
ENDBRANCH  83  87
ENDBRANCH   1  84
BRANCH   9 118
ATOM    118  C   UNK A   6      13.881  -8.790  12.561  0.00  0.00    +0.000 C 
ATOM    119  O   UNK A   6      12.794  -9.116  13.102  0.00  0.00    +0.000 OA
ENDBRANCH   9 118
BRANCH   5 120
ATOM    120  CB  VAL A   5      10.822  -6.170  10.475  0.00  0.00    +0.000 C 
BRANCH 120 121
ATOM    121  CG  VAL A   5       9.414  -5.881  10.136  0.00  0.00    +0.000 A 
ATOM    122  CD2 VAL A   5       8.337  -6.530  10.844  0.00  0.00    +0.000 A 
ATOM    123  CE2 VAL A   5       7.001  -6.291  10.483  0.00  0.00    +0.000 A 
ATOM    124  CZ  VAL A   5       6.716  -5.417   9.388  0.00  0.00    +0.000 A 
ATOM    125  CE1 VAL A   5       7.728  -4.797   8.688  0.00  0.00    +0.000 A 
ATOM    126  CD1 VAL A   5       9.103  -5.010   9.050  0.00  0.00    +0.000 A 
ENDBRANCH 120 121
ENDBRANCH   5 120
TORSDOF 42
REMARK  Name = ../refined-set-2016/4q81/4q81_pocket.pdb
REMARK  139 active torsions:
REMARK  status: ('A' for Active; 'I' for Inactive)
REMARK    1  A    between atoms: _1  and  _3
REMARK    2  A    between atoms: _3  and  _4
REMARK    3  A    between atoms: _3  and  _6
REMARK    4  A    between atoms: _6  and  _7
REMARK    5  A    between atoms: _17  and  _19
REMARK    6  A    between atoms: _19  and  _20
REMARK    7  A    between atoms: _19  and  _22
REMARK    8  A    between atoms: _22  and  _23
REMARK    9  A    between atoms: _28  and  _29
REMARK   10  A    between atoms: _31  and  _33
REMARK   11  A    between atoms: _33  and  _34
REMARK   12  A    between atoms: _33  and  _36
REMARK   13  A    between atoms: _36  and  _37
REMARK   14  A    between atoms: _39  and  _41
REMARK   15  A    between atoms: _41  and  _42
REMARK   16  A    between atoms: _41  and  _44
REMARK   17  A    between atoms: _44  and  _45
REMARK   18  A    between atoms: _50  and  _52
REMARK   19  A    between atoms: _52  and  _53
REMARK   20  A    between atoms: _52  and  _55
REMARK   21  A    between atoms: _55  and  _56
REMARK   22  A    between atoms: _61  and  _63
REMARK   23  A    between atoms: _63  and  _64
REMARK   24  A    between atoms: _67  and  _69
REMARK   25  A    between atoms: _69  and  _70
REMARK   26  A    between atoms: _69  and  _72
REMARK   27  A    between atoms: _72  and  _73
REMARK   28  A    between atoms: _79  and  _81
REMARK   29  A    between atoms: _81  and  _82
REMARK   30  A    between atoms: _81  and  _84
REMARK   31  A    between atoms: _84  and  _85
REMARK   32  A    between atoms: _90  and  _92
REMARK   33  A    between atoms: _92  and  _93
REMARK   34  A    between atoms: _92  and  _95
REMARK   35  A    between atoms: _95  and  _96
REMARK   36  A    between atoms: _99  and  _101
REMARK   37  A    between atoms: _101  and  _102
REMARK   38  A    between atoms: _101  and  _104
REMARK   39  A    between atoms: _104  and  _105
REMARK   40  A    between atoms: _105  and  _106
REMARK   41  A    between atoms: _111  and  _113
REMARK   42  A    between atoms: _113  and  _114
REMARK   43  A    between atoms: _113  and  _116
REMARK   44  A    between atoms: _116  and  _117
REMARK   45  A    between atoms: _123  and  _125
REMARK   46  A    between atoms: _136  and  _139
REMARK   47  A    between atoms: _139  and  _140
REMARK   48  A    between atoms: _148  and  _149
REMARK   49  A    between atoms: _157  and  _159
REMARK   50  A    between atoms: _159  and  _160
REMARK   51  A    between atoms: _159  and  _162
REMARK   52  A    between atoms: _162  and  _163
REMARK   53  A    between atoms: _163  and  _164
REMARK   54  A    between atoms: _167  and  _169
REMARK   55  A    between atoms: _169  and  _170
REMARK   56  A    between atoms: _169  and  _172
REMARK   57  A    between atoms: _172  and  _173
REMARK   58  A    between atoms: _178  and  _180
REMARK   59  A    between atoms: _180  and  _181
REMARK   60  A    between atoms: _180  and  _183
REMARK   61  A    between atoms: _183  and  _184
REMARK   62  A    between atoms: _184  and  _185
REMARK   63  A    between atoms: _188  and  _190
REMARK   64  A    between atoms: _190  and  _191
REMARK   65  A    between atoms: _190  and  _193
REMARK   66  A    between atoms: _193  and  _194
REMARK   67  A    between atoms: _197  and  _199
REMARK   68  A    between atoms: _199  and  _200
REMARK   69  A    between atoms: _199  and  _202
REMARK   70  A    between atoms: _202  and  _203
REMARK   71  A    between atoms: _204  and  ZN_392
REMARK   72  A    between atoms: _208  and  _210
REMARK   73  A    between atoms: _210  and  _211
REMARK   74  A    between atoms: _210  and  _213
REMARK   75  A    between atoms: _213  and  _214
REMARK   76  A    between atoms: _217  and  _219
REMARK   77  A    between atoms: _219  and  _220
REMARK   78  A    between atoms: _219  and  _222
REMARK   79  A    between atoms: _225  and  _227
REMARK   80  A    between atoms: _227  and  _228
REMARK   81  A    between atoms: _227  and  _230
REMARK   82  A    between atoms: _230  and  _231
REMARK   83  A    between atoms: _236  and  _238
REMARK   84  A    between atoms: _238  and  _239
REMARK   85  A    between atoms: _238  and  _241
REMARK   86  A    between atoms: _241  and  _242
REMARK   87  A    between atoms: _248  and  _250
REMARK   88  A    between atoms: _250  and  _251
REMARK   89  A    between atoms: _250  and  _253
REMARK   90  A    between atoms: _256  and  _258
REMARK   91  A    between atoms: _258  and  _259
REMARK   92  A    between atoms: _258  and  _261
REMARK   93  A    between atoms: _261  and  _262
REMARK   94  A    between atoms: _265  and  _267
REMARK   95  A    between atoms: _267  and  _268
REMARK   96  A    between atoms: _267  and  _270
REMARK   97  A    between atoms: _273  and  _275
REMARK   98  A    between atoms: _275  and  _276
REMARK   99  A    between atoms: _275  and  _278
REMARK  100  A    between atoms: _278  and  _279
REMARK  101  A    between atoms: _281  and  _283
REMARK  102  A    between atoms: _283  and  _284
REMARK  103  A    between atoms: _283  and  _286
REMARK  104  A    between atoms: _286  and  _287
REMARK  105  A    between atoms: _290  and  _292
REMARK  106  A    between atoms: _292  and  _293
REMARK  107  A    between atoms: _292  and  _295
REMARK  108  A    between atoms: _295  and  _296
REMARK  109  A    between atoms: _299  and  _301
REMARK  110  A    between atoms: _301  and  _302
REMARK  111  A    between atoms: _301  and  _304
REMARK  112  A    between atoms: _304  and  _305
REMARK  113  A    between atoms: _309  and  _310
REMARK  114  A    between atoms: _316  and  _317
REMARK  115  A    between atoms: _322  and  _324
REMARK  116  A    between atoms: _324  and  _325
REMARK  117  A    between atoms: _324  and  _327
REMARK  118  A    between atoms: _327  and  _328
REMARK  119  A    between atoms: _331  and  _333
REMARK  120  A    between atoms: _333  and  _334
REMARK  121  A    between atoms: _333  and  _336
REMARK  122  A    between atoms: _336  and  _337
REMARK  123  A    between atoms: _340  and  _342
REMARK  124  A    between atoms: _342  and  _343
REMARK  125  A    between atoms: _342  and  _345
REMARK  126  A    between atoms: _348  and  _350
REMARK  127  A    between atoms: _350  and  _351
REMARK  128  A    between atoms: _350  and  _353
REMARK  129  A    between atoms: _353  and  _354
REMARK  130  A    between atoms: _364  and  _366
REMARK  131  A    between atoms: _366  and  _367
REMARK  132  A    between atoms: _366  and  _369
REMARK  133  A    between atoms: _369  and  _370
REMARK  134  A    between atoms: _375  and  _377
REMARK  135  A    between atoms: _377  and  _378
REMARK  136  A    between atoms: _377  and  _380
REMARK  137  A    between atoms: _380  and  _381
REMARK  138  A    between atoms: _381  and  _382
REMARK  139  A    between atoms: _382  and  _383
REMARK                            x       y       z     vdW  Elec       q    Type
REMARK                         _______ _______ _______ _____ _____    ______ ____
ROOT
ATOM      1  C   GLU A   1      15.095  -8.670  21.090  0.00  0.00    +0.238 C 
ATOM      2  O   GLU A   1      15.874  -9.288  21.863  0.00  0.00    -0.274 OA
ATOM      3  N   HIS A   2      13.871  -8.200  21.498  0.00  0.00    -0.298 N 
ATOM      4  H   HIS A   2      13.289  -7.585  20.894  0.00  0.00    +0.150 HD
ENDROOT
BRANCH   1   5
ATOM      5  CA  GLU A   1      15.469  -8.503  19.605  0.00  0.00    +0.145 C 
BRANCH   5   6
ATOM      6  N   GLU A   1      14.413  -9.181  18.750  0.00  0.00    -0.238 NA
ATOM      7  H   GLU A   1      13.562  -8.652  18.470  0.00  0.00    +0.142 HD
ENDBRANCH   5   6
BRANCH   5   8
ATOM      8  CB  GLU A   1      15.493  -7.060  19.215  0.00  0.00    +0.038 C 
BRANCH   8   9
ATOM      9  CG  GLU A   1      16.083  -6.998  17.746  0.00  0.00    +0.116 C 
BRANCH   9  10
ATOM     10  CD  GLU A   1      16.698  -5.707  17.392  0.00  0.00    +0.365 C 
ATOM     11  OE2 GLU A   1      16.046  -4.680  17.623  0.00  0.00    -0.246 OA
ATOM     12  OE1 GLU A   1      17.793  -5.670  16.884  0.00  0.00    -0.246 OA
ENDBRANCH   9  10
ENDBRANCH   8   9
ENDBRANCH   5   8
ENDBRANCH   1   5
BRANCH   3  13
ATOM     13  CA  HIS A   2      13.437  -8.608  22.814  0.00  0.00    +0.143 C 
BRANCH  13  14
ATOM     14  C   HIS A   2      13.104 -10.072  22.810  0.00  0.00    +0.227 C 
ATOM     15  O   HIS A   2      12.767 -10.656  21.789  0.00  0.00    -0.286 OA
ENDBRANCH  13  14
BRANCH  13  16
ATOM     16  CB  HIS A   2      12.204  -7.783  23.184  0.00  0.00    +0.075 C 
BRANCH  16  17
ATOM     17  CG  HIS A   2      12.571  -6.323  23.339  0.00  0.00    +0.082 A 
ATOM     18  CD2 HIS A   2      13.038  -5.617  24.418  0.00  0.00    +0.115 A 
ATOM     19  NE2 HIS A   2      13.289  -4.320  23.988  0.00  0.00    -0.221 NA
ATOM     20  CE1 HIS A   2      12.940  -4.227  22.708  0.00  0.00    +0.199 A 
ATOM     21  ND1 HIS A   2      12.496  -5.418  22.298  0.00  0.00    -0.227 NA
ENDBRANCH  16  17
ENDBRANCH  13  16
ENDBRANCH   3  13
TORSDOF 9
REMARK  Name = ../refined-set-2016/4q81/4q81_pocket.pdb
REMARK  139 active torsions:
REMARK  status: ('A' for Active; 'I' for Inactive)
REMARK    1  A    between atoms: _1  and  _3
REMARK    2  A    between atoms: _3  and  _4
REMARK    3  A    between atoms: _3  and  _6
REMARK    4  A    between atoms: _6  and  _7
REMARK    5  A    between atoms: _17  and  _19
REMARK    6  A    between atoms: _19  and  _20
REMARK    7  A    between atoms: _19  and  _22
REMARK    8  A    between atoms: _22  and  _23
REMARK    9  A    between atoms: _28  and  _29
REMARK   10  A    between atoms: _31  and  _33
REMARK   11  A    between atoms: _33  and  _34
REMARK   12  A    between atoms: _33  and  _36
REMARK   13  A    between atoms: _36  and  _37
REMARK   14  A    between atoms: _39  and  _41
REMARK   15  A    between atoms: _41  and  _42
REMARK   16  A    between atoms: _41  and  _44
REMARK   17  A    between atoms: _44  and  _45
REMARK   18  A    between atoms: _50  and  _52
REMARK   19  A    between atoms: _52  and  _53
REMARK   20  A    between atoms: _52  and  _55
REMARK   21  A    between atoms: _55  and  _56
REMARK   22  A    between atoms: _61  and  _63
REMARK   23  A    between atoms: _63  and  _64
REMARK   24  A    between atoms: _67  and  _69
REMARK   25  A    between atoms: _69  and  _70
REMARK   26  A    between atoms: _69  and  _72
REMARK   27  A    between atoms: _72  and  _73
REMARK   28  A    between atoms: _79  and  _81
REMARK   29  A    between atoms: _81  and  _82
REMARK   30  A    between atoms: _81  and  _84
REMARK   31  A    between atoms: _84  and  _85
REMARK   32  A    between atoms: _90  and  _92
REMARK   33  A    between atoms: _92  and  _93
REMARK   34  A    between atoms: _92  and  _95
REMARK   35  A    between atoms: _95  and  _96
REMARK   36  A    between atoms: _99  and  _101
REMARK   37  A    between atoms: _101  and  _102
REMARK   38  A    between atoms: _101  and  _104
REMARK   39  A    between atoms: _104  and  _105
REMARK   40  A    between atoms: _105  and  _106
REMARK   41  A    between atoms: _111  and  _113
REMARK   42  A    between atoms: _113  and  _114
REMARK   43  A    between atoms: _113  and  _116
REMARK   44  A    between atoms: _116  and  _117
REMARK   45  A    between atoms: _123  and  _125
REMARK   46  A    between atoms: _136  and  _139
REMARK   47  A    between atoms: _139  and  _140
REMARK   48  A    between atoms: _148  and  _149
REMARK   49  A    between atoms: _157  and  _159
REMARK   50  A    between atoms: _159  and  _160
REMARK   51  A    between atoms: _159  and  _162
REMARK   52  A    between atoms: _162  and  _163
REMARK   53  A    between atoms: _163  and  _164
REMARK   54  A    between atoms: _167  and  _169
REMARK   55  A    between atoms: _169  and  _170
REMARK   56  A    between atoms: _169  and  _172
REMARK   57  A    between atoms: _172  and  _173
REMARK   58  A    between atoms: _178  and  _180
REMARK   59  A    between atoms: _180  and  _181
REMARK   60  A    between atoms: _180  and  _183
REMARK   61  A    between atoms: _183  and  _184
REMARK   62  A    between atoms: _184  and  _185
REMARK   63  A    between atoms: _188  and  _190
REMARK   64  A    between atoms: _190  and  _191
REMARK   65  A    between atoms: _190  and  _193
REMARK   66  A    between atoms: _193  and  _194
REMARK   67  A    between atoms: _197  and  _199
REMARK   68  A    between atoms: _199  and  _200
REMARK   69  A    between atoms: _199  and  _202
REMARK   70  A    between atoms: _202  and  _203
REMARK   71  A    between atoms: _204  and  ZN_392
REMARK   72  A    between atoms: _208  and  _210
REMARK   73  A    between atoms: _210  and  _211
REMARK   74  A    between atoms: _210  and  _213
REMARK   75  A    between atoms: _213  and  _214
REMARK   76  A    between atoms: _217  and  _219
REMARK   77  A    between atoms: _219  and  _220
REMARK   78  A    between atoms: _219  and  _222
REMARK   79  A    between atoms: _225  and  _227
REMARK   80  A    between atoms: _227  and  _228
REMARK   81  A    between atoms: _227  and  _230
REMARK   82  A    between atoms: _230  and  _231
REMARK   83  A    between atoms: _236  and  _238
REMARK   84  A    between atoms: _238  and  _239
REMARK   85  A    between atoms: _238  and  _241
REMARK   86  A    between atoms: _241  and  _242
REMARK   87  A    between atoms: _248  and  _250
REMARK   88  A    between atoms: _250  and  _251
REMARK   89  A    between atoms: _250  and  _253
REMARK   90  A    between atoms: _256  and  _258
REMARK   91  A    between atoms: _258  and  _259
REMARK   92  A    between atoms: _258  and  _261
REMARK   93  A    between atoms: _261  and  _262
REMARK   94  A    between atoms: _265  and  _267
REMARK   95  A    between atoms: _267  and  _268
REMARK   96  A    between atoms: _267  and  _270
REMARK   97  A    between atoms: _273  and  _275
REMARK   98  A    between atoms: _275  and  _276
REMARK   99  A    between atoms: _275  and  _278
REMARK  100  A    between atoms: _278  and  _279
REMARK  101  A    between atoms: _281  and  _283
REMARK  102  A    between atoms: _283  and  _284
REMARK  103  A    between atoms: _283  and  _286
REMARK  104  A    between atoms: _286  and  _287
REMARK  105  A    between atoms: _290  and  _292
REMARK  106  A    between atoms: _292  and  _293
REMARK  107  A    between atoms: _292  and  _295
REMARK  108  A    between atoms: _295  and  _296
REMARK  109  A    between atoms: _299  and  _301
REMARK  110  A    between atoms: _301  and  _302
REMARK  111  A    between atoms: _301  and  _304
REMARK  112  A    between atoms: _304  and  _305
REMARK  113  A    between atoms: _309  and  _310
REMARK  114  A    between atoms: _316  and  _317
REMARK  115  A    between atoms: _322  and  _324
REMARK  116  A    between atoms: _324  and  _325
REMARK  117  A    between atoms: _324  and  _327
REMARK  118  A    between atoms: _327  and  _328
REMARK  119  A    between atoms: _331  and  _333
REMARK  120  A    between atoms: _333  and  _334
REMARK  121  A    between atoms: _333  and  _336
REMARK  122  A    between atoms: _336  and  _337
REMARK  123  A    between atoms: _340  and  _342
REMARK  124  A    between atoms: _342  and  _343
REMARK  125  A    between atoms: _342  and  _345
REMARK  126  A    between atoms: _348  and  _350
REMARK  127  A    between atoms: _350  and  _351
REMARK  128  A    between atoms: _350  and  _353
REMARK  129  A    between atoms: _353  and  _354
REMARK  130  A    between atoms: _364  and  _366
REMARK  131  A    between atoms: _366  and  _367
REMARK  132  A    between atoms: _366  and  _369
REMARK  133  A    between atoms: _369  and  _370
REMARK  134  A    between atoms: _375  and  _377
REMARK  135  A    between atoms: _377  and  _378
REMARK  136  A    between atoms: _377  and  _380
REMARK  137  A    between atoms: _380  and  _381
REMARK  138  A    between atoms: _381  and  _382
REMARK  139  A    between atoms: _382  and  _383
REMARK                            x       y       z     vdW  Elec       q    Type
REMARK                         _______ _______ _______ _____ _____    ______ ____
ROOT
ATOM      1  CB  PHE A   1      13.206  12.580  14.056  0.00  0.00    +0.051 C 
ENDROOT
BRANCH   1   2
ATOM      2  CG  PHE A   1      13.926  11.271  14.289  0.00  0.00    -0.020 A 
ATOM      3  CD2 PHE A   1      13.265  10.202  14.945  0.00  0.00    -0.004 A 
ATOM      4  CE2 PHE A   1      13.927   9.023  15.148  0.00  0.00    -0.000 A 
ATOM      5  CZ  PHE A   1      15.223   8.908  14.756  0.00  0.00    -0.000 A 
ATOM      6  CE1 PHE A   1      15.865   9.942  14.110  0.00  0.00    -0.000 A 
ATOM      7  CD1 PHE A   1      15.246  11.103  13.891  0.00  0.00    -0.004 A 
ENDBRANCH   1   2
BRANCH   1   8
ATOM      8  CA  PHE A   1      13.279  13.593  15.250  0.00  0.00    +0.137 C 
BRANCH   8   9
ATOM      9  N   PHE A   1      12.631  14.863  14.837  0.00  0.00    -0.239 NA
ATOM     10  H   PHE A   1      12.315  14.969  13.852  0.00  0.00    +0.142 HD
ENDBRANCH   8   9
BRANCH   8  11
ATOM     11  C   PHE A   1      14.706  13.867  15.618  0.00  0.00    +0.224 C 
ATOM     12  O   PHE A   1      15.181  13.303  16.588  0.00  0.00    -0.287 OA
ENDBRANCH   8  11
ENDBRANCH   1   8
TORSDOF 4
REMARK  Name = ../refined-set-2016/4q81/4q81_pocket.pdb
REMARK  139 active torsions:
REMARK  status: ('A' for Active; 'I' for Inactive)
REMARK    1  A    between atoms: _1  and  _3
REMARK    2  A    between atoms: _3  and  _4
REMARK    3  A    between atoms: _3  and  _6
REMARK    4  A    between atoms: _6  and  _7
REMARK    5  A    between atoms: _17  and  _19
REMARK    6  A    between atoms: _19  and  _20
REMARK    7  A    between atoms: _19  and  _22
REMARK    8  A    between atoms: _22  and  _23
REMARK    9  A    between atoms: _28  and  _29
REMARK   10  A    between atoms: _31  and  _33
REMARK   11  A    between atoms: _33  and  _34
REMARK   12  A    between atoms: _33  and  _36
REMARK   13  A    between atoms: _36  and  _37
REMARK   14  A    between atoms: _39  and  _41
REMARK   15  A    between atoms: _41  and  _42
REMARK   16  A    between atoms: _41  and  _44
REMARK   17  A    between atoms: _44  and  _45
REMARK   18  A    between atoms: _50  and  _52
REMARK   19  A    between atoms: _52  and  _53
REMARK   20  A    between atoms: _52  and  _55
REMARK   21  A    between atoms: _55  and  _56
REMARK   22  A    between atoms: _61  and  _63
REMARK   23  A    between atoms: _63  and  _64
REMARK   24  A    between atoms: _67  and  _69
REMARK   25  A    between atoms: _69  and  _70
REMARK   26  A    between atoms: _69  and  _72
REMARK   27  A    between atoms: _72  and  _73
REMARK   28  A    between atoms: _79  and  _81
REMARK   29  A    between atoms: _81  and  _82
REMARK   30  A    between atoms: _81  and  _84
REMARK   31  A    between atoms: _84  and  _85
REMARK   32  A    between atoms: _90  and  _92
REMARK   33  A    between atoms: _92  and  _93
REMARK   34  A    between atoms: _92  and  _95
REMARK   35  A    between atoms: _95  and  _96
REMARK   36  A    between atoms: _99  and  _101
REMARK   37  A    between atoms: _101  and  _102
REMARK   38  A    between atoms: _101  and  _104
REMARK   39  A    between atoms: _104  and  _105
REMARK   40  A    between atoms: _105  and  _106
REMARK   41  A    between atoms: _111  and  _113
REMARK   42  A    between atoms: _113  and  _114
REMARK   43  A    between atoms: _113  and  _116
REMARK   44  A    between atoms: _116  and  _117
REMARK   45  A    between atoms: _123  and  _125
REMARK   46  A    between atoms: _136  and  _139
REMARK   47  A    between atoms: _139  and  _140
REMARK   48  A    between atoms: _148  and  _149
REMARK   49  A    between atoms: _157  and  _159
REMARK   50  A    between atoms: _159  and  _160
REMARK   51  A    between atoms: _159  and  _162
REMARK   52  A    between atoms: _162  and  _163
REMARK   53  A    between atoms: _163  and  _164
REMARK   54  A    between atoms: _167  and  _169
REMARK   55  A    between atoms: _169  and  _170
REMARK   56  A    between atoms: _169  and  _172
REMARK   57  A    between atoms: _172  and  _173
REMARK   58  A    between atoms: _178  and  _180
REMARK   59  A    between atoms: _180  and  _181
REMARK   60  A    between atoms: _180  and  _183
REMARK   61  A    between atoms: _183  and  _184
REMARK   62  A    between atoms: _184  and  _185
REMARK   63  A    between atoms: _188  and  _190
REMARK   64  A    between atoms: _190  and  _191
REMARK   65  A    between atoms: _190  and  _193
REMARK   66  A    between atoms: _193  and  _194
REMARK   67  A    between atoms: _197  and  _199
REMARK   68  A    between atoms: _199  and  _200
REMARK   69  A    between atoms: _199  and  _202
REMARK   70  A    between atoms: _202  and  _203
REMARK   71  A    between atoms: _204  and  ZN_392
REMARK   72  A    between atoms: _208  and  _210
REMARK   73  A    between atoms: _210  and  _211
REMARK   74  A    between atoms: _210  and  _213
REMARK   75  A    between atoms: _213  and  _214
REMARK   76  A    between atoms: _217  and  _219
REMARK   77  A    between atoms: _219  and  _220
REMARK   78  A    between atoms: _219  and  _222
REMARK   79  A    between atoms: _225  and  _227
REMARK   80  A    between atoms: _227  and  _228
REMARK   81  A    between atoms: _227  and  _230
REMARK   82  A    between atoms: _230  and  _231
REMARK   83  A    between atoms: _236  and  _238
REMARK   84  A    between atoms: _238  and  _239
REMARK   85  A    between atoms: _238  and  _241
REMARK   86  A    between atoms: _241  and  _242
REMARK   87  A    between atoms: _248  and  _250
REMARK   88  A    between atoms: _250  and  _251
REMARK   89  A    between atoms: _250  and  _253
REMARK   90  A    between atoms: _256  and  _258
REMARK   91  A    between atoms: _258  and  _259
REMARK   92  A    between atoms: _258  and  _261
REMARK   93  A    between atoms: _261  and  _262
REMARK   94  A    between atoms: _265  and  _267
REMARK   95  A    between atoms: _267  and  _268
REMARK   96  A    between atoms: _267  and  _270
REMARK   97  A    between atoms: _273  and  _275
REMARK   98  A    between atoms: _275  and  _276
REMARK   99  A    between atoms: _275  and  _278
REMARK  100  A    between atoms: _278  and  _279
REMARK  101  A    between atoms: _281  and  _283
REMARK  102  A    between atoms: _283  and  _284
REMARK  103  A    between atoms: _283  and  _286
REMARK  104  A    between atoms: _286  and  _287
REMARK  105  A    between atoms: _290  and  _292
REMARK  106  A    between atoms: _292  and  _293
REMARK  107  A    between atoms: _292  and  _295
REMARK  108  A    between atoms: _295  and  _296
REMARK  109  A    between atoms: _299  and  _301
REMARK  110  A    between atoms: _301  and  _302
REMARK  111  A    between atoms: _301  and  _304
REMARK  112  A    between atoms: _304  and  _305
REMARK  113  A    between atoms: _309  and  _310
REMARK  114  A    between atoms: _316  and  _317
REMARK  115  A    between atoms: _322  and  _324
REMARK  116  A    between atoms: _324  and  _325
REMARK  117  A    between atoms: _324  and  _327
REMARK  118  A    between atoms: _327  and  _328
REMARK  119  A    between atoms: _331  and  _333
REMARK  120  A    between atoms: _333  and  _334
REMARK  121  A    between atoms: _333  and  _336
REMARK  122  A    between atoms: _336  and  _337
REMARK  123  A    between atoms: _340  and  _342
REMARK  124  A    between atoms: _342  and  _343
REMARK  125  A    between atoms: _342  and  _345
REMARK  126  A    between atoms: _348  and  _350
REMARK  127  A    between atoms: _350  and  _351
REMARK  128  A    between atoms: _350  and  _353
REMARK  129  A    between atoms: _353  and  _354
REMARK  130  A    between atoms: _364  and  _366
REMARK  131  A    between atoms: _366  and  _367
REMARK  132  A    between atoms: _366  and  _369
REMARK  133  A    between atoms: _369  and  _370
REMARK  134  A    between atoms: _375  and  _377
REMARK  135  A    between atoms: _377  and  _378
REMARK  136  A    between atoms: _377  and  _380
REMARK  137  A    between atoms: _380  and  _381
REMARK  138  A    between atoms: _381  and  _382
REMARK  139  A    between atoms: _382  and  _383
REMARK                            x       y       z     vdW  Elec       q    Type
REMARK                         _______ _______ _______ _____ _____    ______ ____
ROOT
ATOM      1  CA  VAL A   1      17.196  11.707  19.778  0.00  0.00    +0.133 C 
ENDROOT
BRANCH   1   2
ATOM      2  CB  VAL A   1      17.712  10.898  18.556  0.00  0.00    +0.023 C 
ATOM      3  CG2 VAL A   1      16.437  10.251  17.806  0.00  0.00    +0.002 C 
ATOM      4  CG1 VAL A   1      18.500  11.812  17.569  0.00  0.00    +0.002 C 
ENDBRANCH   1   2
BRANCH   1   5
ATOM      5  N   VAL A   1      16.152  12.732  19.387  0.00  0.00    -0.239 NA
ATOM      6  H   VAL A   1      16.063  13.065  18.406  0.00  0.00    +0.142 HD
ENDBRANCH   1   5
BRANCH   1   7
ATOM      7  C   VAL A   1      18.341  12.316  20.588  0.00  0.00    +0.224 C 
ATOM      8  O   VAL A   1      19.164  11.508  21.059  0.00  0.00    -0.287 OA
ENDBRANCH   1   7
TORSDOF 3
REMARK  Name = ../refined-set-2016/4q81/4q81_pocket.pdb
REMARK  139 active torsions:
REMARK  status: ('A' for Active; 'I' for Inactive)
REMARK    1  A    between atoms: _1  and  _3
REMARK    2  A    between atoms: _3  and  _4
REMARK    3  A    between atoms: _3  and  _6
REMARK    4  A    between atoms: _6  and  _7
REMARK    5  A    between atoms: _17  and  _19
REMARK    6  A    between atoms: _19  and  _20
REMARK    7  A    between atoms: _19  and  _22
REMARK    8  A    between atoms: _22  and  _23
REMARK    9  A    between atoms: _28  and  _29
REMARK   10  A    between atoms: _31  and  _33
REMARK   11  A    between atoms: _33  and  _34
REMARK   12  A    between atoms: _33  and  _36
REMARK   13  A    between atoms: _36  and  _37
REMARK   14  A    between atoms: _39  and  _41
REMARK   15  A    between atoms: _41  and  _42
REMARK   16  A    between atoms: _41  and  _44
REMARK   17  A    between atoms: _44  and  _45
REMARK   18  A    between atoms: _50  and  _52
REMARK   19  A    between atoms: _52  and  _53
REMARK   20  A    between atoms: _52  and  _55
REMARK   21  A    between atoms: _55  and  _56
REMARK   22  A    between atoms: _61  and  _63
REMARK   23  A    between atoms: _63  and  _64
REMARK   24  A    between atoms: _67  and  _69
REMARK   25  A    between atoms: _69  and  _70
REMARK   26  A    between atoms: _69  and  _72
REMARK   27  A    between atoms: _72  and  _73
REMARK   28  A    between atoms: _79  and  _81
REMARK   29  A    between atoms: _81  and  _82
REMARK   30  A    between atoms: _81  and  _84
REMARK   31  A    between atoms: _84  and  _85
REMARK   32  A    between atoms: _90  and  _92
REMARK   33  A    between atoms: _92  and  _93
REMARK   34  A    between atoms: _92  and  _95
REMARK   35  A    between atoms: _95  and  _96
REMARK   36  A    between atoms: _99  and  _101
REMARK   37  A    between atoms: _101  and  _102
REMARK   38  A    between atoms: _101  and  _104
REMARK   39  A    between atoms: _104  and  _105
REMARK   40  A    between atoms: _105  and  _106
REMARK   41  A    between atoms: _111  and  _113
REMARK   42  A    between atoms: _113  and  _114
REMARK   43  A    between atoms: _113  and  _116
REMARK   44  A    between atoms: _116  and  _117
REMARK   45  A    between atoms: _123  and  _125
REMARK   46  A    between atoms: _136  and  _139
REMARK   47  A    between atoms: _139  and  _140
REMARK   48  A    between atoms: _148  and  _149
REMARK   49  A    between atoms: _157  and  _159
REMARK   50  A    between atoms: _159  and  _160
REMARK   51  A    between atoms: _159  and  _162
REMARK   52  A    between atoms: _162  and  _163
REMARK   53  A    between atoms: _163  and  _164
REMARK   54  A    between atoms: _167  and  _169
REMARK   55  A    between atoms: _169  and  _170
REMARK   56  A    between atoms: _169  and  _172
REMARK   57  A    between atoms: _172  and  _173
REMARK   58  A    between atoms: _178  and  _180
REMARK   59  A    between atoms: _180  and  _181
REMARK   60  A    between atoms: _180  and  _183
REMARK   61  A    between atoms: _183  and  _184
REMARK   62  A    between atoms: _184  and  _185
REMARK   63  A    between atoms: _188  and  _190
REMARK   64  A    between atoms: _190  and  _191
REMARK   65  A    between atoms: _190  and  _193
REMARK   66  A    between atoms: _193  and  _194
REMARK   67  A    between atoms: _197  and  _199
REMARK   68  A    between atoms: _199  and  _200
REMARK   69  A    between atoms: _199  and  _202
REMARK   70  A    between atoms: _202  and  _203
REMARK   71  A    between atoms: _204  and  ZN_392
REMARK   72  A    between atoms: _208  and  _210
REMARK   73  A    between atoms: _210  and  _211
REMARK   74  A    between atoms: _210  and  _213
REMARK   75  A    between atoms: _213  and  _214
REMARK   76  A    between atoms: _217  and  _219
REMARK   77  A    between atoms: _219  and  _220
REMARK   78  A    between atoms: _219  and  _222
REMARK   79  A    between atoms: _225  and  _227
REMARK   80  A    between atoms: _227  and  _228
REMARK   81  A    between atoms: _227  and  _230
REMARK   82  A    between atoms: _230  and  _231
REMARK   83  A    between atoms: _236  and  _238
REMARK   84  A    between atoms: _238  and  _239
REMARK   85  A    between atoms: _238  and  _241
REMARK   86  A    between atoms: _241  and  _242
REMARK   87  A    between atoms: _248  and  _250
REMARK   88  A    between atoms: _250  and  _251
REMARK   89  A    between atoms: _250  and  _253
REMARK   90  A    between atoms: _256  and  _258
REMARK   91  A    between atoms: _258  and  _259
REMARK   92  A    between atoms: _258  and  _261
REMARK   93  A    between atoms: _261  and  _262
REMARK   94  A    between atoms: _265  and  _267
REMARK   95  A    between atoms: _267  and  _268
REMARK   96  A    between atoms: _267  and  _270
REMARK   97  A    between atoms: _273  and  _275
REMARK   98  A    between atoms: _275  and  _276
REMARK   99  A    between atoms: _275  and  _278
REMARK  100  A    between atoms: _278  and  _279
REMARK  101  A    between atoms: _281  and  _283
REMARK  102  A    between atoms: _283  and  _284
REMARK  103  A    between atoms: _283  and  _286
REMARK  104  A    between atoms: _286  and  _287
REMARK  105  A    between atoms: _290  and  _292
REMARK  106  A    between atoms: _292  and  _293
REMARK  107  A    between atoms: _292  and  _295
REMARK  108  A    between atoms: _295  and  _296
REMARK  109  A    between atoms: _299  and  _301
REMARK  110  A    between atoms: _301  and  _302
REMARK  111  A    between atoms: _301  and  _304
REMARK  112  A    between atoms: _304  and  _305
REMARK  113  A    between atoms: _309  and  _310
REMARK  114  A    between atoms: _316  and  _317
REMARK  115  A    between atoms: _322  and  _324
REMARK  116  A    between atoms: _324  and  _325
REMARK  117  A    between atoms: _324  and  _327
REMARK  118  A    between atoms: _327  and  _328
REMARK  119  A    between atoms: _331  and  _333
REMARK  120  A    between atoms: _333  and  _334
REMARK  121  A    between atoms: _333  and  _336
REMARK  122  A    between atoms: _336  and  _337
REMARK  123  A    between atoms: _340  and  _342
REMARK  124  A    between atoms: _342  and  _343
REMARK  125  A    between atoms: _342  and  _345
REMARK  126  A    between atoms: _348  and  _350
REMARK  127  A    between atoms: _350  and  _351
REMARK  128  A    between atoms: _350  and  _353
REMARK  129  A    between atoms: _353  and  _354
REMARK  130  A    between atoms: _364  and  _366
REMARK  131  A    between atoms: _366  and  _367
REMARK  132  A    between atoms: _366  and  _369
REMARK  133  A    between atoms: _369  and  _370
REMARK  134  A    between atoms: _375  and  _377
REMARK  135  A    between atoms: _377  and  _378
REMARK  136  A    between atoms: _377  and  _380
REMARK  137  A    between atoms: _380  and  _381
REMARK  138  A    between atoms: _381  and  _382
REMARK  139  A    between atoms: _382  and  _383
REMARK                            x       y       z     vdW  Elec       q    Type
REMARK                         _______ _______ _______ _____ _____    ______ ____
ROOT
ATOM      1  CA  LEU A   1      11.464   8.412  21.418  0.00  0.00    +0.133 C 
ENDROOT
BRANCH   1   2
ATOM      2  N   LEU A   1      12.077   9.385  22.297  0.00  0.00    -0.239 NA
ATOM      3  H   LEU A   1      12.593   9.076  23.146  0.00  0.00    +0.142 HD
ENDBRANCH   1   2
BRANCH   1   4
ATOM      4  C   LEU A   1      10.523   7.506  22.205  0.00  0.00    +0.224 C 
ATOM      5  O   LEU A   1      10.768   7.201  23.364  0.00  0.00    -0.287 OA
ENDBRANCH   1   4
BRANCH   1   6
ATOM      6  CB  LEU A   1      12.504   7.569  20.642  0.00  0.00    +0.025 C 
BRANCH   6   7
ATOM      7  CG  LEU A   1      13.382   8.372  19.696  0.00  0.00    +0.002 C 
ATOM      8  CD2 LEU A   1      14.189   7.281  18.976  0.00  0.00    +0.000 C 
ATOM      9  CD1 LEU A   1      12.718   9.161  18.628  0.00  0.00    +0.000 C 
ENDBRANCH   6   7
ENDBRANCH   1   6
TORSDOF 4
REMARK  Name = ../refined-set-2016/4q81/4q81_pocket.pdb
REMARK  139 active torsions:
REMARK  status: ('A' for Active; 'I' for Inactive)
REMARK    1  A    between atoms: _1  and  _3
REMARK    2  A    between atoms: _3  and  _4
REMARK    3  A    between atoms: _3  and  _6
REMARK    4  A    between atoms: _6  and  _7
REMARK    5  A    between atoms: _17  and  _19
REMARK    6  A    between atoms: _19  and  _20
REMARK    7  A    between atoms: _19  and  _22
REMARK    8  A    between atoms: _22  and  _23
REMARK    9  A    between atoms: _28  and  _29
REMARK   10  A    between atoms: _31  and  _33
REMARK   11  A    between atoms: _33  and  _34
REMARK   12  A    between atoms: _33  and  _36
REMARK   13  A    between atoms: _36  and  _37
REMARK   14  A    between atoms: _39  and  _41
REMARK   15  A    between atoms: _41  and  _42
REMARK   16  A    between atoms: _41  and  _44
REMARK   17  A    between atoms: _44  and  _45
REMARK   18  A    between atoms: _50  and  _52
REMARK   19  A    between atoms: _52  and  _53
REMARK   20  A    between atoms: _52  and  _55
REMARK   21  A    between atoms: _55  and  _56
REMARK   22  A    between atoms: _61  and  _63
REMARK   23  A    between atoms: _63  and  _64
REMARK   24  A    between atoms: _67  and  _69
REMARK   25  A    between atoms: _69  and  _70
REMARK   26  A    between atoms: _69  and  _72
REMARK   27  A    between atoms: _72  and  _73
REMARK   28  A    between atoms: _79  and  _81
REMARK   29  A    between atoms: _81  and  _82
REMARK   30  A    between atoms: _81  and  _84
REMARK   31  A    between atoms: _84  and  _85
REMARK   32  A    between atoms: _90  and  _92
REMARK   33  A    between atoms: _92  and  _93
REMARK   34  A    between atoms: _92  and  _95
REMARK   35  A    between atoms: _95  and  _96
REMARK   36  A    between atoms: _99  and  _101
REMARK   37  A    between atoms: _101  and  _102
REMARK   38  A    between atoms: _101  and  _104
REMARK   39  A    between atoms: _104  and  _105
REMARK   40  A    between atoms: _105  and  _106
REMARK   41  A    between atoms: _111  and  _113
REMARK   42  A    between atoms: _113  and  _114
REMARK   43  A    between atoms: _113  and  _116
REMARK   44  A    between atoms: _116  and  _117
REMARK   45  A    between atoms: _123  and  _125
REMARK   46  A    between atoms: _136  and  _139
REMARK   47  A    between atoms: _139  and  _140
REMARK   48  A    between atoms: _148  and  _149
REMARK   49  A    between atoms: _157  and  _159
REMARK   50  A    between atoms: _159  and  _160
REMARK   51  A    between atoms: _159  and  _162
REMARK   52  A    between atoms: _162  and  _163
REMARK   53  A    between atoms: _163  and  _164
REMARK   54  A    between atoms: _167  and  _169
REMARK   55  A    between atoms: _169  and  _170
REMARK   56  A    between atoms: _169  and  _172
REMARK   57  A    between atoms: _172  and  _173
REMARK   58  A    between atoms: _178  and  _180
REMARK   59  A    between atoms: _180  and  _181
REMARK   60  A    between atoms: _180  and  _183
REMARK   61  A    between atoms: _183  and  _184
REMARK   62  A    between atoms: _184  and  _185
REMARK   63  A    between atoms: _188  and  _190
REMARK   64  A    between atoms: _190  and  _191
REMARK   65  A    between atoms: _190  and  _193
REMARK   66  A    between atoms: _193  and  _194
REMARK   67  A    between atoms: _197  and  _199
REMARK   68  A    between atoms: _199  and  _200
REMARK   69  A    between atoms: _199  and  _202
REMARK   70  A    between atoms: _202  and  _203
REMARK   71  A    between atoms: _204  and  ZN_392
REMARK   72  A    between atoms: _208  and  _210
REMARK   73  A    between atoms: _210  and  _211
REMARK   74  A    between atoms: _210  and  _213
REMARK   75  A    between atoms: _213  and  _214
REMARK   76  A    between atoms: _217  and  _219
REMARK   77  A    between atoms: _219  and  _220
REMARK   78  A    between atoms: _219  and  _222
REMARK   79  A    between atoms: _225  and  _227
REMARK   80  A    between atoms: _227  and  _228
REMARK   81  A    between atoms: _227  and  _230
REMARK   82  A    between atoms: _230  and  _231
REMARK   83  A    between atoms: _236  and  _238
REMARK   84  A    between atoms: _238  and  _239
REMARK   85  A    between atoms: _238  and  _241
REMARK   86  A    between atoms: _241  and  _242
REMARK   87  A    between atoms: _248  and  _250
REMARK   88  A    between atoms: _250  and  _251
REMARK   89  A    between atoms: _250  and  _253
REMARK   90  A    between atoms: _256  and  _258
REMARK   91  A    between atoms: _258  and  _259
REMARK   92  A    between atoms: _258  and  _261
REMARK   93  A    between atoms: _261  and  _262
REMARK   94  A    between atoms: _265  and  _267
REMARK   95  A    between atoms: _267  and  _268
REMARK   96  A    between atoms: _267  and  _270
REMARK   97  A    between atoms: _273  and  _275
REMARK   98  A    between atoms: _275  and  _276
REMARK   99  A    between atoms: _275  and  _278
REMARK  100  A    between atoms: _278  and  _279
REMARK  101  A    between atoms: _281  and  _283
REMARK  102  A    between atoms: _283  and  _284
REMARK  103  A    between atoms: _283  and  _286
REMARK  104  A    between atoms: _286  and  _287
REMARK  105  A    between atoms: _290  and  _292
REMARK  106  A    between atoms: _292  and  _293
REMARK  107  A    between atoms: _292  and  _295
REMARK  108  A    between atoms: _295  and  _296
REMARK  109  A    between atoms: _299  and  _301
REMARK  110  A    between atoms: _301  and  _302
REMARK  111  A    between atoms: _301  and  _304
REMARK  112  A    between atoms: _304  and  _305
REMARK  113  A    between atoms: _309  and  _310
REMARK  114  A    between atoms: _316  and  _317
REMARK  115  A    between atoms: _322  and  _324
REMARK  116  A    between atoms: _324  and  _325
REMARK  117  A    between atoms: _324  and  _327
REMARK  118  A    between atoms: _327  and  _328
REMARK  119  A    between atoms: _331  and  _333
REMARK  120  A    between atoms: _333  and  _334
REMARK  121  A    between atoms: _333  and  _336
REMARK  122  A    between atoms: _336  and  _337
REMARK  123  A    between atoms: _340  and  _342
REMARK  124  A    between atoms: _342  and  _343
REMARK  125  A    between atoms: _342  and  _345
REMARK  126  A    between atoms: _348  and  _350
REMARK  127  A    between atoms: _350  and  _351
REMARK  128  A    between atoms: _350  and  _353
REMARK  129  A    between atoms: _353  and  _354
REMARK  130  A    between atoms: _364  and  _366
REMARK  131  A    between atoms: _366  and  _367
REMARK  132  A    between atoms: _366  and  _369
REMARK  133  A    between atoms: _369  and  _370
REMARK  134  A    between atoms: _375  and  _377
REMARK  135  A    between atoms: _377  and  _378
REMARK  136  A    between atoms: _377  and  _380
REMARK  137  A    between atoms: _380  and  _381
REMARK  138  A    between atoms: _381  and  _382
REMARK  139  A    between atoms: _382  and  _383
REMARK                            x       y       z     vdW  Elec       q    Type
REMARK                         _______ _______ _______ _____ _____    ______ ____
ROOT
ATOM      1  CA  VAL A   1       9.082   2.557  20.130  0.00  0.00    +0.133 C 
ENDROOT
BRANCH   1   2
ATOM      2  CB  VAL A   1      10.448   1.975  19.820  0.00  0.00    +0.023 C 
ATOM      3  CG2 VAL A   1      11.353   3.110  19.405  0.00  0.00    +0.002 C 
ATOM      4  CG1 VAL A   1      10.354   0.925  18.662  0.00  0.00    +0.002 C 
ENDBRANCH   1   2
BRANCH   1   5
ATOM      5  N   VAL A   1       9.107   3.597  21.167  0.00  0.00    -0.239 NA
ATOM      6  H   VAL A   1       9.455   3.381  22.123  0.00  0.00    +0.142 HD
ENDBRANCH   1   5
BRANCH   1   7
ATOM      7  C   VAL A   1       8.097   1.517  20.606  0.00  0.00    +0.224 C 
ATOM      8  O   VAL A   1       8.221   0.986  21.731  0.00  0.00    -0.287 OA
ENDBRANCH   1   7
TORSDOF 3
REMARK  Name = ../refined-set-2016/4q81/4q81_pocket.pdb
REMARK  139 active torsions:
REMARK  status: ('A' for Active; 'I' for Inactive)
REMARK    1  A    between atoms: _1  and  _3
REMARK    2  A    between atoms: _3  and  _4
REMARK    3  A    between atoms: _3  and  _6
REMARK    4  A    between atoms: _6  and  _7
REMARK    5  A    between atoms: _17  and  _19
REMARK    6  A    between atoms: _19  and  _20
REMARK    7  A    between atoms: _19  and  _22
REMARK    8  A    between atoms: _22  and  _23
REMARK    9  A    between atoms: _28  and  _29
REMARK   10  A    between atoms: _31  and  _33
REMARK   11  A    between atoms: _33  and  _34
REMARK   12  A    between atoms: _33  and  _36
REMARK   13  A    between atoms: _36  and  _37
REMARK   14  A    between atoms: _39  and  _41
REMARK   15  A    between atoms: _41  and  _42
REMARK   16  A    between atoms: _41  and  _44
REMARK   17  A    between atoms: _44  and  _45
REMARK   18  A    between atoms: _50  and  _52
REMARK   19  A    between atoms: _52  and  _53
REMARK   20  A    between atoms: _52  and  _55
REMARK   21  A    between atoms: _55  and  _56
REMARK   22  A    between atoms: _61  and  _63
REMARK   23  A    between atoms: _63  and  _64
REMARK   24  A    between atoms: _67  and  _69
REMARK   25  A    between atoms: _69  and  _70
REMARK   26  A    between atoms: _69  and  _72
REMARK   27  A    between atoms: _72  and  _73
REMARK   28  A    between atoms: _79  and  _81
REMARK   29  A    between atoms: _81  and  _82
REMARK   30  A    between atoms: _81  and  _84
REMARK   31  A    between atoms: _84  and  _85
REMARK   32  A    between atoms: _90  and  _92
REMARK   33  A    between atoms: _92  and  _93
REMARK   34  A    between atoms: _92  and  _95
REMARK   35  A    between atoms: _95  and  _96
REMARK   36  A    between atoms: _99  and  _101
REMARK   37  A    between atoms: _101  and  _102
REMARK   38  A    between atoms: _101  and  _104
REMARK   39  A    between atoms: _104  and  _105
REMARK   40  A    between atoms: _105  and  _106
REMARK   41  A    between atoms: _111  and  _113
REMARK   42  A    between atoms: _113  and  _114
REMARK   43  A    between atoms: _113  and  _116
REMARK   44  A    between atoms: _116  and  _117
REMARK   45  A    between atoms: _123  and  _125
REMARK   46  A    between atoms: _136  and  _139
REMARK   47  A    between atoms: _139  and  _140
REMARK   48  A    between atoms: _148  and  _149
REMARK   49  A    between atoms: _157  and  _159
REMARK   50  A    between atoms: _159  and  _160
REMARK   51  A    between atoms: _159  and  _162
REMARK   52  A    between atoms: _162  and  _163
REMARK   53  A    between atoms: _163  and  _164
REMARK   54  A    between atoms: _167  and  _169
REMARK   55  A    between atoms: _169  and  _170
REMARK   56  A    between atoms: _169  and  _172
REMARK   57  A    between atoms: _172  and  _173
REMARK   58  A    between atoms: _178  and  _180
REMARK   59  A    between atoms: _180  and  _181
REMARK   60  A    between atoms: _180  and  _183
REMARK   61  A    between atoms: _183  and  _184
REMARK   62  A    between atoms: _184  and  _185
REMARK   63  A    between atoms: _188  and  _190
REMARK   64  A    between atoms: _190  and  _191
REMARK   65  A    between atoms: _190  and  _193
REMARK   66  A    between atoms: _193  and  _194
REMARK   67  A    between atoms: _197  and  _199
REMARK   68  A    between atoms: _199  and  _200
REMARK   69  A    between atoms: _199  and  _202
REMARK   70  A    between atoms: _202  and  _203
REMARK   71  A    between atoms: _204  and  ZN_392
REMARK   72  A    between atoms: _208  and  _210
REMARK   73  A    between atoms: _210  and  _211
REMARK   74  A    between atoms: _210  and  _213
REMARK   75  A    between atoms: _213  and  _214
REMARK   76  A    between atoms: _217  and  _219
REMARK   77  A    between atoms: _219  and  _220
REMARK   78  A    between atoms: _219  and  _222
REMARK   79  A    between atoms: _225  and  _227
REMARK   80  A    between atoms: _227  and  _228
REMARK   81  A    between atoms: _227  and  _230
REMARK   82  A    between atoms: _230  and  _231
REMARK   83  A    between atoms: _236  and  _238
REMARK   84  A    between atoms: _238  and  _239
REMARK   85  A    between atoms: _238  and  _241
REMARK   86  A    between atoms: _241  and  _242
REMARK   87  A    between atoms: _248  and  _250
REMARK   88  A    between atoms: _250  and  _251
REMARK   89  A    between atoms: _250  and  _253
REMARK   90  A    between atoms: _256  and  _258
REMARK   91  A    between atoms: _258  and  _259
REMARK   92  A    between atoms: _258  and  _261
REMARK   93  A    between atoms: _261  and  _262
REMARK   94  A    between atoms: _265  and  _267
REMARK   95  A    between atoms: _267  and  _268
REMARK   96  A    between atoms: _267  and  _270
REMARK   97  A    between atoms: _273  and  _275
REMARK   98  A    between atoms: _275  and  _276
REMARK   99  A    between atoms: _275  and  _278
REMARK  100  A    between atoms: _278  and  _279
REMARK  101  A    between atoms: _281  and  _283
REMARK  102  A    between atoms: _283  and  _284
REMARK  103  A    between atoms: _283  and  _286
REMARK  104  A    between atoms: _286  and  _287
REMARK  105  A    between atoms: _290  and  _292
REMARK  106  A    between atoms: _292  and  _293
REMARK  107  A    between atoms: _292  and  _295
REMARK  108  A    between atoms: _295  and  _296
REMARK  109  A    between atoms: _299  and  _301
REMARK  110  A    between atoms: _301  and  _302
REMARK  111  A    between atoms: _301  and  _304
REMARK  112  A    between atoms: _304  and  _305
REMARK  113  A    between atoms: _309  and  _310
REMARK  114  A    between atoms: _316  and  _317
REMARK  115  A    between atoms: _322  and  _324
REMARK  116  A    between atoms: _324  and  _325
REMARK  117  A    between atoms: _324  and  _327
REMARK  118  A    between atoms: _327  and  _328
REMARK  119  A    between atoms: _331  and  _333
REMARK  120  A    between atoms: _333  and  _334
REMARK  121  A    between atoms: _333  and  _336
REMARK  122  A    between atoms: _336  and  _337
REMARK  123  A    between atoms: _340  and  _342
REMARK  124  A    between atoms: _342  and  _343
REMARK  125  A    between atoms: _342  and  _345
REMARK  126  A    between atoms: _348  and  _350
REMARK  127  A    between atoms: _350  and  _351
REMARK  128  A    between atoms: _350  and  _353
REMARK  129  A    between atoms: _353  and  _354
REMARK  130  A    between atoms: _364  and  _366
REMARK  131  A    between atoms: _366  and  _367
REMARK  132  A    between atoms: _366  and  _369
REMARK  133  A    between atoms: _369  and  _370
REMARK  134  A    between atoms: _375  and  _377
REMARK  135  A    between atoms: _377  and  _378
REMARK  136  A    between atoms: _377  and  _380
REMARK  137  A    between atoms: _380  and  _381
REMARK  138  A    between atoms: _381  and  _382
REMARK  139  A    between atoms: _382  and  _383
REMARK                            x       y       z     vdW  Elec       q    Type
REMARK                         _______ _______ _______ _____ _____    ______ ____
ROOT
ATOM      1  C   THR A   4      21.920   0.996  16.284  0.00  0.00    +0.246 C 
ATOM      2  O   THR A   4      21.426   2.000  16.843  0.00  0.00    -0.273 OA
ATOM      3  N   PRO A   5      23.245   0.966  15.884  0.00  0.00    -0.272 N 
ATOM      4  CA  PRO A   5      23.980   2.205  15.963  0.00  0.00    +0.152 C 
ATOM      5  CB  PRO A   5      25.234   1.886  15.126  0.00  0.00    +0.031 C 
ATOM      6  CG  PRO A   5      25.418   0.422  15.355  0.00  0.00    +0.024 C 
ATOM      7  CD  PRO A   5      24.024  -0.149  15.307  0.00  0.00    +0.094 C 
ENDROOT
BRANCH   4   8
ATOM      8  C   PRO A   5      23.133   3.362  15.391  0.00  0.00    +0.244 C 
ATOM      9  N   PRO A   6      23.157   4.517  16.026  0.00  0.00    -0.272 N 
ATOM     10  CA  PRO A   6      24.075   4.924  17.091  0.00  0.00    +0.152 C 
ATOM     11  CB  PRO A   6      24.127   6.463  16.923  0.00  0.00    +0.031 C 
ATOM     12  CG  PRO A   6      22.782   6.805  16.392  0.00  0.00    +0.024 C 
ATOM     13  CD  PRO A   6      22.364   5.660  15.521  0.00  0.00    +0.094 C 
ATOM     14  O   PRO A   5      22.526   3.252  14.246  0.00  0.00    -0.273 OA
BRANCH  10  15
ATOM     15  C   PRO A   6      23.704   4.564  18.531  0.00  0.00    +0.241 C 
ATOM     16  O   PRO A   6      24.288   5.032  19.464  0.00  0.00    -0.273 OA
ATOM     17  N   LEU A   7      22.716   3.661  18.679  0.00  0.00    -0.297 N 
ATOM     18  H   LEU A   7      22.132   3.392  17.862  0.00  0.00    +0.150 HD
BRANCH  17  19
ATOM     19  CA  LEU A   7      22.463   3.058  19.987  0.00  0.00    +0.149 C 
BRANCH  19  20
ATOM     20  C   LEU A   7      22.029   4.086  21.071  0.00  0.00    +0.241 C 
ATOM     21  O   LEU A   7      22.193   3.849  22.252  0.00  0.00    -0.273 OA
ATOM     22  N   LEU A   8      21.406   5.189  20.606  0.00  0.00    -0.298 N 
ATOM     23  H   LEU A   8      21.109   5.242  19.611  0.00  0.00    +0.150 HD
BRANCH  22  24
ATOM     24  CA  LEU A   8      21.150   6.317  21.516  0.00  0.00    +0.137 C 
BRANCH  24  25
ATOM     25  C   LEU A   8      20.122   5.904  22.598  0.00  0.00    +0.227 C 
ATOM     26  O   LEU A   8      19.089   5.267  22.309  0.00  0.00    -0.286 OA
ENDBRANCH  24  25
BRANCH  24  27
ATOM     27  CB  LEU A   8      20.669   7.535  20.710  0.00  0.00    +0.028 C 
BRANCH  27  28
ATOM     28  CG  LEU A   8      21.719   8.037  19.683  0.00  0.00    +0.002 C 
ATOM     29  CD2 LEU A   8      22.910   8.579  20.404  0.00  0.00    +0.000 C 
ATOM     30  CD1 LEU A   8      21.018   9.065  18.778  0.00  0.00    +0.000 C 
ENDBRANCH  27  28
ENDBRANCH  24  27
ENDBRANCH  22  24
ENDBRANCH  19  20
BRANCH  19  31
ATOM     31  CB  LEU A   7      23.635   2.168  20.495  0.00  0.00    +0.029 C 
BRANCH  31  32
ATOM     32  CG  LEU A   7      23.937   1.071  19.494  0.00  0.00    +0.002 C 
ATOM     33  CD2 LEU A   7      25.273   0.347  19.964  0.00  0.00    +0.000 C 
ATOM     34  CD1 LEU A   7      22.852  -0.001  19.414  0.00  0.00    +0.000 C 
ENDBRANCH  31  32
ENDBRANCH  19  31
ENDBRANCH  17  19
ENDBRANCH  10  15
ENDBRANCH   4   8
BRANCH   1  35
ATOM     35  CA  THR A   4      21.076  -0.260  16.030  0.00  0.00    +0.176 C 
BRANCH  35  38
ATOM     36  C   THR A   3      19.950  -1.444  17.844  0.00  0.00    +0.243 C 
ATOM     37  O   THR A   3      20.654  -2.446  17.678  0.00  0.00    -0.273 OA
ATOM     38  N   THR A   4      20.008  -0.371  17.048  0.00  0.00    -0.295 N 
ATOM     39  H   THR A   4      19.302   0.386  17.145  0.00  0.00    +0.150 HD
BRANCH  36  40
ATOM     40  CA  THR A   3      18.906  -1.403  18.979  0.00  0.00    +0.176 C 
BRANCH  40  43
ATOM     41  C   LEU A   2      18.613   0.881  19.770  0.00  0.00    +0.241 C 
ATOM     42  O   LEU A   2      19.627   0.727  20.516  0.00  0.00    -0.273 OA
ATOM     43  N   THR A   3      18.212  -0.076  18.960  0.00  0.00    -0.295 N 
ATOM     44  H   THR A   3      17.417   0.089  18.310  0.00  0.00    +0.150 HD
BRANCH  41  45
ATOM     45  CA  LEU A   2      17.854   2.212  19.698  0.00  0.00    +0.149 C 
BRANCH  45  48
ATOM     46  C   SER A   1      17.376   2.148  22.107  0.00  0.00    +0.241 C 
ATOM     47  O   SER A   1      16.634   1.153  21.972  0.00  0.00    -0.274 OA
ATOM     48  N   LEU A   2      17.919   2.810  21.068  0.00  0.00    -0.297 N 
ATOM     49  H   LEU A   2      18.380   3.730  21.217  0.00  0.00    +0.150 HD
BRANCH  46  50
ATOM     50  CA  SER A   1      17.847   2.606  23.501  0.00  0.00    +0.174 C 
BRANCH  50  51
ATOM     51  N   SER A   1      17.074   1.943  24.576  0.00  0.00    -0.236 NA
ATOM     52  H   SER A   1      16.852   0.930  24.497  0.00  0.00    +0.142 HD
ENDBRANCH  50  51
BRANCH  50  53
ATOM     53  CB  SER A   1      19.355   2.226  23.623  0.00  0.00    +0.163 C 
BRANCH  53  54
ATOM     54  OG  SER A   1      19.595   0.835  23.244  0.00  0.00    -0.380 OA
ATOM     55  H   SER A   1      19.313   0.697  22.305  0.00  0.00    +0.211 HD
ENDBRANCH  53  54
ENDBRANCH  50  53
ENDBRANCH  46  50
ENDBRANCH  45  48
BRANCH  45  56
ATOM     56  CB  LEU A   2      18.591   3.073  18.676  0.00  0.00    +0.029 C 
BRANCH  56  57
ATOM     57  CG  LEU A   2      18.245   4.542  18.661  0.00  0.00    +0.002 C 
ATOM     58  CD2 LEU A   2      16.759   4.768  18.429  0.00  0.00    +0.000 C 
ATOM     59  CD1 LEU A   2      19.022   5.304  17.498  0.00  0.00    +0.000 C 
ENDBRANCH  56  57
ENDBRANCH  45  56
ENDBRANCH  41  45
ENDBRANCH  40  43
BRANCH  40  60
ATOM     60  CB  THR A   3      17.916  -2.556  18.838  0.00  0.00    +0.137 C 
ATOM     61  CG2 THR A   3      16.871  -2.504  19.952  0.00  0.00    +0.034 C 
BRANCH  60  62
ATOM     62  OG1 THR A   3      17.265  -2.462  17.566  0.00  0.00    -0.382 OA
ATOM     63  HG1 THR A   3      16.622  -3.208  17.470  0.00  0.00    +0.210 HD
ENDBRANCH  60  62
ENDBRANCH  40  60
ENDBRANCH  36  40
ENDBRANCH  35  38
BRANCH  35  64
ATOM     64  CB  THR A   4      20.419  -0.090  14.671  0.00  0.00    +0.137 C 
ATOM     65  CG2 THR A   4      19.963  -1.402  14.190  0.00  0.00    +0.034 C 
BRANCH  64  66
ATOM     66  OG1 THR A   4      19.282   0.775  14.799  0.00  0.00    -0.382 OA
ATOM     67  HG1 THR A   4      19.577   1.657  15.138  0.00  0.00    +0.210 HD
ENDBRANCH  64  66
ENDBRANCH  35  64
ENDBRANCH   1  35
TORSDOF 26
REMARK  Name = ../refined-set-2016/4q81/4q81_pocket.pdb
REMARK  139 active torsions:
REMARK  status: ('A' for Active; 'I' for Inactive)
REMARK    1  A    between atoms: _1  and  _3
REMARK    2  A    between atoms: _3  and  _4
REMARK    3  A    between atoms: _3  and  _6
REMARK    4  A    between atoms: _6  and  _7
REMARK    5  A    between atoms: _17  and  _19
REMARK    6  A    between atoms: _19  and  _20
REMARK    7  A    between atoms: _19  and  _22
REMARK    8  A    between atoms: _22  and  _23
REMARK    9  A    between atoms: _28  and  _29
REMARK   10  A    between atoms: _31  and  _33
REMARK   11  A    between atoms: _33  and  _34
REMARK   12  A    between atoms: _33  and  _36
REMARK   13  A    between atoms: _36  and  _37
REMARK   14  A    between atoms: _39  and  _41
REMARK   15  A    between atoms: _41  and  _42
REMARK   16  A    between atoms: _41  and  _44
REMARK   17  A    between atoms: _44  and  _45
REMARK   18  A    between atoms: _50  and  _52
REMARK   19  A    between atoms: _52  and  _53
REMARK   20  A    between atoms: _52  and  _55
REMARK   21  A    between atoms: _55  and  _56
REMARK   22  A    between atoms: _61  and  _63
REMARK   23  A    between atoms: _63  and  _64
REMARK   24  A    between atoms: _67  and  _69
REMARK   25  A    between atoms: _69  and  _70
REMARK   26  A    between atoms: _69  and  _72
REMARK   27  A    between atoms: _72  and  _73
REMARK   28  A    between atoms: _79  and  _81
REMARK   29  A    between atoms: _81  and  _82
REMARK   30  A    between atoms: _81  and  _84
REMARK   31  A    between atoms: _84  and  _85
REMARK   32  A    between atoms: _90  and  _92
REMARK   33  A    between atoms: _92  and  _93
REMARK   34  A    between atoms: _92  and  _95
REMARK   35  A    between atoms: _95  and  _96
REMARK   36  A    between atoms: _99  and  _101
REMARK   37  A    between atoms: _101  and  _102
REMARK   38  A    between atoms: _101  and  _104
REMARK   39  A    between atoms: _104  and  _105
REMARK   40  A    between atoms: _105  and  _106
REMARK   41  A    between atoms: _111  and  _113
REMARK   42  A    between atoms: _113  and  _114
REMARK   43  A    between atoms: _113  and  _116
REMARK   44  A    between atoms: _116  and  _117
REMARK   45  A    between atoms: _123  and  _125
REMARK   46  A    between atoms: _136  and  _139
REMARK   47  A    between atoms: _139  and  _140
REMARK   48  A    between atoms: _148  and  _149
REMARK   49  A    between atoms: _157  and  _159
REMARK   50  A    between atoms: _159  and  _160
REMARK   51  A    between atoms: _159  and  _162
REMARK   52  A    between atoms: _162  and  _163
REMARK   53  A    between atoms: _163  and  _164
REMARK   54  A    between atoms: _167  and  _169
REMARK   55  A    between atoms: _169  and  _170
REMARK   56  A    between atoms: _169  and  _172
REMARK   57  A    between atoms: _172  and  _173
REMARK   58  A    between atoms: _178  and  _180
REMARK   59  A    between atoms: _180  and  _181
REMARK   60  A    between atoms: _180  and  _183
REMARK   61  A    between atoms: _183  and  _184
REMARK   62  A    between atoms: _184  and  _185
REMARK   63  A    between atoms: _188  and  _190
REMARK   64  A    between atoms: _190  and  _191
REMARK   65  A    between atoms: _190  and  _193
REMARK   66  A    between atoms: _193  and  _194
REMARK   67  A    between atoms: _197  and  _199
REMARK   68  A    between atoms: _199  and  _200
REMARK   69  A    between atoms: _199  and  _202
REMARK   70  A    between atoms: _202  and  _203
REMARK   71  A    between atoms: _204  and  ZN_392
REMARK   72  A    between atoms: _208  and  _210
REMARK   73  A    between atoms: _210  and  _211
REMARK   74  A    between atoms: _210  and  _213
REMARK   75  A    between atoms: _213  and  _214
REMARK   76  A    between atoms: _217  and  _219
REMARK   77  A    between atoms: _219  and  _220
REMARK   78  A    between atoms: _219  and  _222
REMARK   79  A    between atoms: _225  and  _227
REMARK   80  A    between atoms: _227  and  _228
REMARK   81  A    between atoms: _227  and  _230
REMARK   82  A    between atoms: _230  and  _231
REMARK   83  A    between atoms: _236  and  _238
REMARK   84  A    between atoms: _238  and  _239
REMARK   85  A    between atoms: _238  and  _241
REMARK   86  A    between atoms: _241  and  _242
REMARK   87  A    between atoms: _248  and  _250
REMARK   88  A    between atoms: _250  and  _251
REMARK   89  A    between atoms: _250  and  _253
REMARK   90  A    between atoms: _256  and  _258
REMARK   91  A    between atoms: _258  and  _259
REMARK   92  A    between atoms: _258  and  _261
REMARK   93  A    between atoms: _261  and  _262
REMARK   94  A    between atoms: _265  and  _267
REMARK   95  A    between atoms: _267  and  _268
REMARK   96  A    between atoms: _267  and  _270
REMARK   97  A    between atoms: _273  and  _275
REMARK   98  A    between atoms: _275  and  _276
REMARK   99  A    between atoms: _275  and  _278
REMARK  100  A    between atoms: _278  and  _279
REMARK  101  A    between atoms: _281  and  _283
REMARK  102  A    between atoms: _283  and  _284
REMARK  103  A    between atoms: _283  and  _286
REMARK  104  A    between atoms: _286  and  _287
REMARK  105  A    between atoms: _290  and  _292
REMARK  106  A    between atoms: _292  and  _293
REMARK  107  A    between atoms: _292  and  _295
REMARK  108  A    between atoms: _295  and  _296
REMARK  109  A    between atoms: _299  and  _301
REMARK  110  A    between atoms: _301  and  _302
REMARK  111  A    between atoms: _301  and  _304
REMARK  112  A    between atoms: _304  and  _305
REMARK  113  A    between atoms: _309  and  _310
REMARK  114  A    between atoms: _316  and  _317
REMARK  115  A    between atoms: _322  and  _324
REMARK  116  A    between atoms: _324  and  _325
REMARK  117  A    between atoms: _324  and  _327
REMARK  118  A    between atoms: _327  and  _328
REMARK  119  A    between atoms: _331  and  _333
REMARK  120  A    between atoms: _333  and  _334
REMARK  121  A    between atoms: _333  and  _336
REMARK  122  A    between atoms: _336  and  _337
REMARK  123  A    between atoms: _340  and  _342
REMARK  124  A    between atoms: _342  and  _343
REMARK  125  A    between atoms: _342  and  _345
REMARK  126  A    between atoms: _348  and  _350
REMARK  127  A    between atoms: _350  and  _351
REMARK  128  A    between atoms: _350  and  _353
REMARK  129  A    between atoms: _353  and  _354
REMARK  130  A    between atoms: _364  and  _366
REMARK  131  A    between atoms: _366  and  _367
REMARK  132  A    between atoms: _366  and  _369
REMARK  133  A    between atoms: _369  and  _370
REMARK  134  A    between atoms: _375  and  _377
REMARK  135  A    between atoms: _377  and  _378
REMARK  136  A    between atoms: _377  and  _380
REMARK  137  A    between atoms: _380  and  _381
REMARK  138  A    between atoms: _381  and  _382
REMARK  139  A    between atoms: _382  and  _383
REMARK                            x       y       z     vdW  Elec       q    Type
REMARK                         _______ _______ _______ _____ _____    ______ ____
ROOT
ATOM      1  CA  VAL A   1      13.661   5.253  23.952  0.00  0.00    +0.133 C 
ENDROOT
BRANCH   1   2
ATOM      2  CB  VAL A   1      13.931   3.995  23.154  0.00  0.00    +0.023 C 
ATOM      3  CG2 VAL A   1      12.559   3.289  22.758  0.00  0.00    +0.002 C 
ATOM      4  CG1 VAL A   1      14.728   4.313  21.857  0.00  0.00    +0.002 C 
ENDBRANCH   1   2
BRANCH   1   5
ATOM      5  N   VAL A   1      14.928   6.020  24.303  0.00  0.00    -0.239 NA
ATOM      6  H   VAL A   1      15.754   5.526  24.697  0.00  0.00    +0.142 HD
ENDBRANCH   1   5
BRANCH   1   7
ATOM      7  C   VAL A   1      12.887   4.804  25.201  0.00  0.00    +0.224 C 
ATOM      8  O   VAL A   1      13.414   4.111  26.076  0.00  0.00    -0.287 OA
ENDBRANCH   1   7
TORSDOF 3
REMARK  Name = ../refined-set-2016/4q81/4q81_pocket.pdb
REMARK  139 active torsions:
REMARK  status: ('A' for Active; 'I' for Inactive)
REMARK    1  A    between atoms: _1  and  _3
REMARK    2  A    between atoms: _3  and  _4
REMARK    3  A    between atoms: _3  and  _6
REMARK    4  A    between atoms: _6  and  _7
REMARK    5  A    between atoms: _17  and  _19
REMARK    6  A    between atoms: _19  and  _20
REMARK    7  A    between atoms: _19  and  _22
REMARK    8  A    between atoms: _22  and  _23
REMARK    9  A    between atoms: _28  and  _29
REMARK   10  A    between atoms: _31  and  _33
REMARK   11  A    between atoms: _33  and  _34
REMARK   12  A    between atoms: _33  and  _36
REMARK   13  A    between atoms: _36  and  _37
REMARK   14  A    between atoms: _39  and  _41
REMARK   15  A    between atoms: _41  and  _42
REMARK   16  A    between atoms: _41  and  _44
REMARK   17  A    between atoms: _44  and  _45
REMARK   18  A    between atoms: _50  and  _52
REMARK   19  A    between atoms: _52  and  _53
REMARK   20  A    between atoms: _52  and  _55
REMARK   21  A    between atoms: _55  and  _56
REMARK   22  A    between atoms: _61  and  _63
REMARK   23  A    between atoms: _63  and  _64
REMARK   24  A    between atoms: _67  and  _69
REMARK   25  A    between atoms: _69  and  _70
REMARK   26  A    between atoms: _69  and  _72
REMARK   27  A    between atoms: _72  and  _73
REMARK   28  A    between atoms: _79  and  _81
REMARK   29  A    between atoms: _81  and  _82
REMARK   30  A    between atoms: _81  and  _84
REMARK   31  A    between atoms: _84  and  _85
REMARK   32  A    between atoms: _90  and  _92
REMARK   33  A    between atoms: _92  and  _93
REMARK   34  A    between atoms: _92  and  _95
REMARK   35  A    between atoms: _95  and  _96
REMARK   36  A    between atoms: _99  and  _101
REMARK   37  A    between atoms: _101  and  _102
REMARK   38  A    between atoms: _101  and  _104
REMARK   39  A    between atoms: _104  and  _105
REMARK   40  A    between atoms: _105  and  _106
REMARK   41  A    between atoms: _111  and  _113
REMARK   42  A    between atoms: _113  and  _114
REMARK   43  A    between atoms: _113  and  _116
REMARK   44  A    between atoms: _116  and  _117
REMARK   45  A    between atoms: _123  and  _125
REMARK   46  A    between atoms: _136  and  _139
REMARK   47  A    between atoms: _139  and  _140
REMARK   48  A    between atoms: _148  and  _149
REMARK   49  A    between atoms: _157  and  _159
REMARK   50  A    between atoms: _159  and  _160
REMARK   51  A    between atoms: _159  and  _162
REMARK   52  A    between atoms: _162  and  _163
REMARK   53  A    between atoms: _163  and  _164
REMARK   54  A    between atoms: _167  and  _169
REMARK   55  A    between atoms: _169  and  _170
REMARK   56  A    between atoms: _169  and  _172
REMARK   57  A    between atoms: _172  and  _173
REMARK   58  A    between atoms: _178  and  _180
REMARK   59  A    between atoms: _180  and  _181
REMARK   60  A    between atoms: _180  and  _183
REMARK   61  A    between atoms: _183  and  _184
REMARK   62  A    between atoms: _184  and  _185
REMARK   63  A    between atoms: _188  and  _190
REMARK   64  A    between atoms: _190  and  _191
REMARK   65  A    between atoms: _190  and  _193
REMARK   66  A    between atoms: _193  and  _194
REMARK   67  A    between atoms: _197  and  _199
REMARK   68  A    between atoms: _199  and  _200
REMARK   69  A    between atoms: _199  and  _202
REMARK   70  A    between atoms: _202  and  _203
REMARK   71  A    between atoms: _204  and  ZN_392
REMARK   72  A    between atoms: _208  and  _210
REMARK   73  A    between atoms: _210  and  _211
REMARK   74  A    between atoms: _210  and  _213
REMARK   75  A    between atoms: _213  and  _214
REMARK   76  A    between atoms: _217  and  _219
REMARK   77  A    between atoms: _219  and  _220
REMARK   78  A    between atoms: _219  and  _222
REMARK   79  A    between atoms: _225  and  _227
REMARK   80  A    between atoms: _227  and  _228
REMARK   81  A    between atoms: _227  and  _230
REMARK   82  A    between atoms: _230  and  _231
REMARK   83  A    between atoms: _236  and  _238
REMARK   84  A    between atoms: _238  and  _239
REMARK   85  A    between atoms: _238  and  _241
REMARK   86  A    between atoms: _241  and  _242
REMARK   87  A    between atoms: _248  and  _250
REMARK   88  A    between atoms: _250  and  _251
REMARK   89  A    between atoms: _250  and  _253
REMARK   90  A    between atoms: _256  and  _258
REMARK   91  A    between atoms: _258  and  _259
REMARK   92  A    between atoms: _258  and  _261
REMARK   93  A    between atoms: _261  and  _262
REMARK   94  A    between atoms: _265  and  _267
REMARK   95  A    between atoms: _267  and  _268
REMARK   96  A    between atoms: _267  and  _270
REMARK   97  A    between atoms: _273  and  _275
REMARK   98  A    between atoms: _275  and  _276
REMARK   99  A    between atoms: _275  and  _278
REMARK  100  A    between atoms: _278  and  _279
REMARK  101  A    between atoms: _281  and  _283
REMARK  102  A    between atoms: _283  and  _284
REMARK  103  A    between atoms: _283  and  _286
REMARK  104  A    between atoms: _286  and  _287
REMARK  105  A    between atoms: _290  and  _292
REMARK  106  A    between atoms: _292  and  _293
REMARK  107  A    between atoms: _292  and  _295
REMARK  108  A    between atoms: _295  and  _296
REMARK  109  A    between atoms: _299  and  _301
REMARK  110  A    between atoms: _301  and  _302
REMARK  111  A    between atoms: _301  and  _304
REMARK  112  A    between atoms: _304  and  _305
REMARK  113  A    between atoms: _309  and  _310
REMARK  114  A    between atoms: _316  and  _317
REMARK  115  A    between atoms: _322  and  _324
REMARK  116  A    between atoms: _324  and  _325
REMARK  117  A    between atoms: _324  and  _327
REMARK  118  A    between atoms: _327  and  _328
REMARK  119  A    between atoms: _331  and  _333
REMARK  120  A    between atoms: _333  and  _334
REMARK  121  A    between atoms: _333  and  _336
REMARK  122  A    between atoms: _336  and  _337
REMARK  123  A    between atoms: _340  and  _342
REMARK  124  A    between atoms: _342  and  _343
REMARK  125  A    between atoms: _342  and  _345
REMARK  126  A    between atoms: _348  and  _350
REMARK  127  A    between atoms: _350  and  _351
REMARK  128  A    between atoms: _350  and  _353
REMARK  129  A    between atoms: _353  and  _354
REMARK  130  A    between atoms: _364  and  _366
REMARK  131  A    between atoms: _366  and  _367
REMARK  132  A    between atoms: _366  and  _369
REMARK  133  A    between atoms: _369  and  _370
REMARK  134  A    between atoms: _375  and  _377
REMARK  135  A    between atoms: _377  and  _378
REMARK  136  A    between atoms: _377  and  _380
REMARK  137  A    between atoms: _380  and  _381
REMARK  138  A    between atoms: _381  and  _382
REMARK  139  A    between atoms: _382  and  _383
REMARK                            x       y       z     vdW  Elec       q    Type
REMARK                         _______ _______ _______ _____ _____    ______ ____
ROOT
ATOM      1  CG  TRP A   1      12.157  -0.188  24.223  0.00  0.00    -0.002 A 
ATOM      2  CD1 TRP A   1      13.426   0.378  24.427  0.00  0.00    +0.068 A 
ATOM      3  NE1 TRP A   1      14.141   0.352  23.256  0.00  0.00    -0.352 N 
ATOM      4  HE1 TRP A   1      15.096   0.742  23.127  0.00  0.00    +0.166 HD
ATOM      5  CE2 TRP A   1      13.389  -0.278  22.268  0.00  0.00    +0.056 A 
ATOM      6  CZ2 TRP A   1      13.683  -0.513  20.933  0.00  0.00    +0.017 A 
ATOM      7  CH2 TRP A   1      12.682  -1.167  20.181  0.00  0.00    +0.001 A 
ATOM      8  CZ3 TRP A   1      11.409  -1.468  20.765  0.00  0.00    +0.000 A 
ATOM      9  CE3 TRP A   1      11.130  -1.196  22.038  0.00  0.00    +0.001 A 
ATOM     10  CD2 TRP A   1      12.128  -0.612  22.850  0.00  0.00    +0.013 A 
ENDROOT
BRANCH   1  11
ATOM     11  CB  TRP A   1      11.012  -0.288  25.189  0.00  0.00    +0.053 C 
BRANCH  11  12
ATOM     12  CA  TRP A   1      10.029   0.914  24.969  0.00  0.00    +0.137 C 
BRANCH  12  13
ATOM     13  N   TRP A   1      10.507   2.102  25.679  0.00  0.00    -0.239 NA
ATOM     14  H   TRP A   1      11.151   1.993  26.489  0.00  0.00    +0.142 HD
ENDBRANCH  12  13
BRANCH  12  15
ATOM     15  C   TRP A   1       8.678   0.472  25.481  0.00  0.00    +0.224 C 
ATOM     16  O   TRP A   1       8.415   0.447  26.676  0.00  0.00    -0.287 OA
ENDBRANCH  12  15
ENDBRANCH  11  12
ENDBRANCH   1  11
TORSDOF 4
REMARK  Name = ../refined-set-2016/4q81/4q81_pocket.pdb
REMARK  139 active torsions:
REMARK  status: ('A' for Active; 'I' for Inactive)
REMARK    1  A    between atoms: _1  and  _3
REMARK    2  A    between atoms: _3  and  _4
REMARK    3  A    between atoms: _3  and  _6
REMARK    4  A    between atoms: _6  and  _7
REMARK    5  A    between atoms: _17  and  _19
REMARK    6  A    between atoms: _19  and  _20
REMARK    7  A    between atoms: _19  and  _22
REMARK    8  A    between atoms: _22  and  _23
REMARK    9  A    between atoms: _28  and  _29
REMARK   10  A    between atoms: _31  and  _33
REMARK   11  A    between atoms: _33  and  _34
REMARK   12  A    between atoms: _33  and  _36
REMARK   13  A    between atoms: _36  and  _37
REMARK   14  A    between atoms: _39  and  _41
REMARK   15  A    between atoms: _41  and  _42
REMARK   16  A    between atoms: _41  and  _44
REMARK   17  A    between atoms: _44  and  _45
REMARK   18  A    between atoms: _50  and  _52
REMARK   19  A    between atoms: _52  and  _53
REMARK   20  A    between atoms: _52  and  _55
REMARK   21  A    between atoms: _55  and  _56
REMARK   22  A    between atoms: _61  and  _63
REMARK   23  A    between atoms: _63  and  _64
REMARK   24  A    between atoms: _67  and  _69
REMARK   25  A    between atoms: _69  and  _70
REMARK   26  A    between atoms: _69  and  _72
REMARK   27  A    between atoms: _72  and  _73
REMARK   28  A    between atoms: _79  and  _81
REMARK   29  A    between atoms: _81  and  _82
REMARK   30  A    between atoms: _81  and  _84
REMARK   31  A    between atoms: _84  and  _85
REMARK   32  A    between atoms: _90  and  _92
REMARK   33  A    between atoms: _92  and  _93
REMARK   34  A    between atoms: _92  and  _95
REMARK   35  A    between atoms: _95  and  _96
REMARK   36  A    between atoms: _99  and  _101
REMARK   37  A    between atoms: _101  and  _102
REMARK   38  A    between atoms: _101  and  _104
REMARK   39  A    between atoms: _104  and  _105
REMARK   40  A    between atoms: _105  and  _106
REMARK   41  A    between atoms: _111  and  _113
REMARK   42  A    between atoms: _113  and  _114
REMARK   43  A    between atoms: _113  and  _116
REMARK   44  A    between atoms: _116  and  _117
REMARK   45  A    between atoms: _123  and  _125
REMARK   46  A    between atoms: _136  and  _139
REMARK   47  A    between atoms: _139  and  _140
REMARK   48  A    between atoms: _148  and  _149
REMARK   49  A    between atoms: _157  and  _159
REMARK   50  A    between atoms: _159  and  _160
REMARK   51  A    between atoms: _159  and  _162
REMARK   52  A    between atoms: _162  and  _163
REMARK   53  A    between atoms: _163  and  _164
REMARK   54  A    between atoms: _167  and  _169
REMARK   55  A    between atoms: _169  and  _170
REMARK   56  A    between atoms: _169  and  _172
REMARK   57  A    between atoms: _172  and  _173
REMARK   58  A    between atoms: _178  and  _180
REMARK   59  A    between atoms: _180  and  _181
REMARK   60  A    between atoms: _180  and  _183
REMARK   61  A    between atoms: _183  and  _184
REMARK   62  A    between atoms: _184  and  _185
REMARK   63  A    between atoms: _188  and  _190
REMARK   64  A    between atoms: _190  and  _191
REMARK   65  A    between atoms: _190  and  _193
REMARK   66  A    between atoms: _193  and  _194
REMARK   67  A    between atoms: _197  and  _199
REMARK   68  A    between atoms: _199  and  _200
REMARK   69  A    between atoms: _199  and  _202
REMARK   70  A    between atoms: _202  and  _203
REMARK   71  A    between atoms: _204  and  ZN_392
REMARK   72  A    between atoms: _208  and  _210
REMARK   73  A    between atoms: _210  and  _211
REMARK   74  A    between atoms: _210  and  _213
REMARK   75  A    between atoms: _213  and  _214
REMARK   76  A    between atoms: _217  and  _219
REMARK   77  A    between atoms: _219  and  _220
REMARK   78  A    between atoms: _219  and  _222
REMARK   79  A    between atoms: _225  and  _227
REMARK   80  A    between atoms: _227  and  _228
REMARK   81  A    between atoms: _227  and  _230
REMARK   82  A    between atoms: _230  and  _231
REMARK   83  A    between atoms: _236  and  _238
REMARK   84  A    between atoms: _238  and  _239
REMARK   85  A    between atoms: _238  and  _241
REMARK   86  A    between atoms: _241  and  _242
REMARK   87  A    between atoms: _248  and  _250
REMARK   88  A    between atoms: _250  and  _251
REMARK   89  A    between atoms: _250  and  _253
REMARK   90  A    between atoms: _256  and  _258
REMARK   91  A    between atoms: _258  and  _259
REMARK   92  A    between atoms: _258  and  _261
REMARK   93  A    between atoms: _261  and  _262
REMARK   94  A    between atoms: _265  and  _267
REMARK   95  A    between atoms: _267  and  _268
REMARK   96  A    between atoms: _267  and  _270
REMARK   97  A    between atoms: _273  and  _275
REMARK   98  A    between atoms: _275  and  _276
REMARK   99  A    between atoms: _275  and  _278
REMARK  100  A    between atoms: _278  and  _279
REMARK  101  A    between atoms: _281  and  _283
REMARK  102  A    between atoms: _283  and  _284
REMARK  103  A    between atoms: _283  and  _286
REMARK  104  A    between atoms: _286  and  _287
REMARK  105  A    between atoms: _290  and  _292
REMARK  106  A    between atoms: _292  and  _293
REMARK  107  A    between atoms: _292  and  _295
REMARK  108  A    between atoms: _295  and  _296
REMARK  109  A    between atoms: _299  and  _301
REMARK  110  A    between atoms: _301  and  _302
REMARK  111  A    between atoms: _301  and  _304
REMARK  112  A    between atoms: _304  and  _305
REMARK  113  A    between atoms: _309  and  _310
REMARK  114  A    between atoms: _316  and  _317
REMARK  115  A    between atoms: _322  and  _324
REMARK  116  A    between atoms: _324  and  _325
REMARK  117  A    between atoms: _324  and  _327
REMARK  118  A    between atoms: _327  and  _328
REMARK  119  A    between atoms: _331  and  _333
REMARK  120  A    between atoms: _333  and  _334
REMARK  121  A    between atoms: _333  and  _336
REMARK  122  A    between atoms: _336  and  _337
REMARK  123  A    between atoms: _340  and  _342
REMARK  124  A    between atoms: _342  and  _343
REMARK  125  A    between atoms: _342  and  _345
REMARK  126  A    between atoms: _348  and  _350
REMARK  127  A    between atoms: _350  and  _351
REMARK  128  A    between atoms: _350  and  _353
REMARK  129  A    between atoms: _353  and  _354
REMARK  130  A    between atoms: _364  and  _366
REMARK  131  A    between atoms: _366  and  _367
REMARK  132  A    between atoms: _366  and  _369
REMARK  133  A    between atoms: _369  and  _370
REMARK  134  A    between atoms: _375  and  _377
REMARK  135  A    between atoms: _377  and  _378
REMARK  136  A    between atoms: _377  and  _380
REMARK  137  A    between atoms: _380  and  _381
REMARK  138  A    between atoms: _381  and  _382
REMARK  139  A    between atoms: _382  and  _383
REMARK                            x       y       z     vdW  Elec       q    Type
REMARK                         _______ _______ _______ _____ _____    ______ ____
ROOT
ATOM      1  CB  ASN A   1      19.072  -7.461  10.466  0.00  0.00    +0.110 C 
ENDROOT
BRANCH   1   2
ATOM      2  CG  ASN A   1      17.623  -7.695  10.144  0.00  0.00    +0.221 C 
ATOM      3  OD1 ASN A   1      16.914  -8.524  10.736  0.00  0.00    -0.275 OA
ATOM      4  ND2 ASN A   1      17.126  -6.866   9.244  0.00  0.00    -0.329 N 
ATOM      5 HD21 ASN A   1      16.112  -6.896   9.013  0.00  0.00    +0.145 HD
ATOM      6 HD22 ASN A   1      17.748  -6.183   8.766  0.00  0.00    +0.145 HD
ENDBRANCH   1   2
BRANCH   1   7
ATOM      7  CA  ASN A   1      19.627  -8.349  11.570  0.00  0.00    +0.142 C 
BRANCH   7   8
ATOM      8  N   ASN A   1      19.298  -9.768  11.305  0.00  0.00    -0.239 NA
ATOM      9  H   ASN A   1      18.384 -10.018  10.876  0.00  0.00    +0.142 HD
ENDBRANCH   7   8
BRANCH   7  10
ATOM     10  C   ASN A   1      19.037  -7.928  12.930  0.00  0.00    +0.225 C 
ATOM     11  O   ASN A   1      18.317  -6.902  13.063  0.00  0.00    -0.287 OA
ENDBRANCH   7  10
ENDBRANCH   1   7
TORSDOF 4
REMARK  Name = ../refined-set-2016/4q81/4q81_pocket.pdb
REMARK  139 active torsions:
REMARK  status: ('A' for Active; 'I' for Inactive)
REMARK    1  A    between atoms: _1  and  _3
REMARK    2  A    between atoms: _3  and  _4
REMARK    3  A    between atoms: _3  and  _6
REMARK    4  A    between atoms: _6  and  _7
REMARK    5  A    between atoms: _17  and  _19
REMARK    6  A    between atoms: _19  and  _20
REMARK    7  A    between atoms: _19  and  _22
REMARK    8  A    between atoms: _22  and  _23
REMARK    9  A    between atoms: _28  and  _29
REMARK   10  A    between atoms: _31  and  _33
REMARK   11  A    between atoms: _33  and  _34
REMARK   12  A    between atoms: _33  and  _36
REMARK   13  A    between atoms: _36  and  _37
REMARK   14  A    between atoms: _39  and  _41
REMARK   15  A    between atoms: _41  and  _42
REMARK   16  A    between atoms: _41  and  _44
REMARK   17  A    between atoms: _44  and  _45
REMARK   18  A    between atoms: _50  and  _52
REMARK   19  A    between atoms: _52  and  _53
REMARK   20  A    between atoms: _52  and  _55
REMARK   21  A    between atoms: _55  and  _56
REMARK   22  A    between atoms: _61  and  _63
REMARK   23  A    between atoms: _63  and  _64
REMARK   24  A    between atoms: _67  and  _69
REMARK   25  A    between atoms: _69  and  _70
REMARK   26  A    between atoms: _69  and  _72
REMARK   27  A    between atoms: _72  and  _73
REMARK   28  A    between atoms: _79  and  _81
REMARK   29  A    between atoms: _81  and  _82
REMARK   30  A    between atoms: _81  and  _84
REMARK   31  A    between atoms: _84  and  _85
REMARK   32  A    between atoms: _90  and  _92
REMARK   33  A    between atoms: _92  and  _93
REMARK   34  A    between atoms: _92  and  _95
REMARK   35  A    between atoms: _95  and  _96
REMARK   36  A    between atoms: _99  and  _101
REMARK   37  A    between atoms: _101  and  _102
REMARK   38  A    between atoms: _101  and  _104
REMARK   39  A    between atoms: _104  and  _105
REMARK   40  A    between atoms: _105  and  _106
REMARK   41  A    between atoms: _111  and  _113
REMARK   42  A    between atoms: _113  and  _114
REMARK   43  A    between atoms: _113  and  _116
REMARK   44  A    between atoms: _116  and  _117
REMARK   45  A    between atoms: _123  and  _125
REMARK   46  A    between atoms: _136  and  _139
REMARK   47  A    between atoms: _139  and  _140
REMARK   48  A    between atoms: _148  and  _149
REMARK   49  A    between atoms: _157  and  _159
REMARK   50  A    between atoms: _159  and  _160
REMARK   51  A    between atoms: _159  and  _162
REMARK   52  A    between atoms: _162  and  _163
REMARK   53  A    between atoms: _163  and  _164
REMARK   54  A    between atoms: _167  and  _169
REMARK   55  A    between atoms: _169  and  _170
REMARK   56  A    between atoms: _169  and  _172
REMARK   57  A    between atoms: _172  and  _173
REMARK   58  A    between atoms: _178  and  _180
REMARK   59  A    between atoms: _180  and  _181
REMARK   60  A    between atoms: _180  and  _183
REMARK   61  A    between atoms: _183  and  _184
REMARK   62  A    between atoms: _184  and  _185
REMARK   63  A    between atoms: _188  and  _190
REMARK   64  A    between atoms: _190  and  _191
REMARK   65  A    between atoms: _190  and  _193
REMARK   66  A    between atoms: _193  and  _194
REMARK   67  A    between atoms: _197  and  _199
REMARK   68  A    between atoms: _199  and  _200
REMARK   69  A    between atoms: _199  and  _202
REMARK   70  A    between atoms: _202  and  _203
REMARK   71  A    between atoms: _204  and  ZN_392
REMARK   72  A    between atoms: _208  and  _210
REMARK   73  A    between atoms: _210  and  _211
REMARK   74  A    between atoms: _210  and  _213
REMARK   75  A    between atoms: _213  and  _214
REMARK   76  A    between atoms: _217  and  _219
REMARK   77  A    between atoms: _219  and  _220
REMARK   78  A    between atoms: _219  and  _222
REMARK   79  A    between atoms: _225  and  _227
REMARK   80  A    between atoms: _227  and  _228
REMARK   81  A    between atoms: _227  and  _230
REMARK   82  A    between atoms: _230  and  _231
REMARK   83  A    between atoms: _236  and  _238
REMARK   84  A    between atoms: _238  and  _239
REMARK   85  A    between atoms: _238  and  _241
REMARK   86  A    between atoms: _241  and  _242
REMARK   87  A    between atoms: _248  and  _250
REMARK   88  A    between atoms: _250  and  _251
REMARK   89  A    between atoms: _250  and  _253
REMARK   90  A    between atoms: _256  and  _258
REMARK   91  A    between atoms: _258  and  _259
REMARK   92  A    between atoms: _258  and  _261
REMARK   93  A    between atoms: _261  and  _262
REMARK   94  A    between atoms: _265  and  _267
REMARK   95  A    between atoms: _267  and  _268
REMARK   96  A    between atoms: _267  and  _270
REMARK   97  A    between atoms: _273  and  _275
REMARK   98  A    between atoms: _275  and  _276
REMARK   99  A    between atoms: _275  and  _278
REMARK  100  A    between atoms: _278  and  _279
REMARK  101  A    between atoms: _281  and  _283
REMARK  102  A    between atoms: _283  and  _284
REMARK  103  A    between atoms: _283  and  _286
REMARK  104  A    between atoms: _286  and  _287
REMARK  105  A    between atoms: _290  and  _292
REMARK  106  A    between atoms: _292  and  _293
REMARK  107  A    between atoms: _292  and  _295
REMARK  108  A    between atoms: _295  and  _296
REMARK  109  A    between atoms: _299  and  _301
REMARK  110  A    between atoms: _301  and  _302
REMARK  111  A    between atoms: _301  and  _304
REMARK  112  A    between atoms: _304  and  _305
REMARK  113  A    between atoms: _309  and  _310
REMARK  114  A    between atoms: _316  and  _317
REMARK  115  A    between atoms: _322  and  _324
REMARK  116  A    between atoms: _324  and  _325
REMARK  117  A    between atoms: _324  and  _327
REMARK  118  A    between atoms: _327  and  _328
REMARK  119  A    between atoms: _331  and  _333
REMARK  120  A    between atoms: _333  and  _334
REMARK  121  A    between atoms: _333  and  _336
REMARK  122  A    between atoms: _336  and  _337
REMARK  123  A    between atoms: _340  and  _342
REMARK  124  A    between atoms: _342  and  _343
REMARK  125  A    between atoms: _342  and  _345
REMARK  126  A    between atoms: _348  and  _350
REMARK  127  A    between atoms: _350  and  _351
REMARK  128  A    between atoms: _350  and  _353
REMARK  129  A    between atoms: _353  and  _354
REMARK  130  A    between atoms: _364  and  _366
REMARK  131  A    between atoms: _366  and  _367
REMARK  132  A    between atoms: _366  and  _369
REMARK  133  A    between atoms: _369  and  _370
REMARK  134  A    between atoms: _375  and  _377
REMARK  135  A    between atoms: _377  and  _378
REMARK  136  A    between atoms: _377  and  _380
REMARK  137  A    between atoms: _380  and  _381
REMARK  138  A    between atoms: _381  and  _382
REMARK  139  A    between atoms: _382  and  _383
REMARK                            x       y       z     vdW  Elec       q    Type
REMARK                         _______ _______ _______ _____ _____    ______ ____
ROOT
ATOM      1  NE  ARG A   1      23.350  -4.068  21.192  0.00  0.00    -0.265 N 
ATOM      2  CZ  ARG A   1      23.513  -3.039  22.034  0.00  0.00    +0.342 C 
ATOM      3  NH2 ARG A   1      24.736  -2.787  22.535  0.00  0.00    -0.292 N 
ATOM      4 HH21 ARG A   1      24.876  -1.991  23.190  0.00  0.00    +0.255 HD
ATOM      5 HH22 ARG A   1      25.541  -3.388  22.268  0.00  0.00    +0.255 HD
ATOM      6  NH1 ARG A   1      22.474  -2.223  22.376  0.00  0.00    -0.292 N 
ATOM      7 HH11 ARG A   1      22.629  -1.431  23.032  0.00  0.00    +0.255 HD
ATOM      8 HH12 ARG A   1      21.527  -2.393  21.980  0.00  0.00    +0.255 HD
ATOM      9  HE  ARG A   1      24.147  -4.721  21.052  0.00  0.00    +0.259 HD
ENDROOT
BRANCH   1  10
ATOM     10  CD  ARG A   1      22.061  -4.331  20.431  0.00  0.00    +0.174 C 
BRANCH  10  11
ATOM     11  CG  ARG A   1      22.192  -5.776  19.889  0.00  0.00    +0.045 C 
BRANCH  11  12
ATOM     12  CB  ARG A   1      21.036  -6.035  18.838  0.00  0.00    +0.029 C 
BRANCH  12  13
ATOM     13  CA  ARG A   1      20.967  -7.472  18.369  0.00  0.00    +0.133 C 
BRANCH  13  14
ATOM     14  N   ARG A   1      20.004  -7.517  17.247  0.00  0.00    -0.239 NA
ATOM     15  H   ARG A   1      19.229  -6.824  17.211  0.00  0.00    +0.142 HD
ENDBRANCH  13  14
BRANCH  13  16
ATOM     16  C   ARG A   1      20.483  -8.338  19.514  0.00  0.00    +0.224 C 
ATOM     17  O   ARG A   1      19.263  -8.363  19.825  0.00  0.00    -0.287 OA
ENDBRANCH  13  16
ENDBRANCH  12  13
ENDBRANCH  11  12
ENDBRANCH  10  11
ENDBRANCH   1  10
TORSDOF 6
REMARK  Name = ../refined-set-2016/4q81/4q81_pocket.pdb
REMARK  139 active torsions:
REMARK  status: ('A' for Active; 'I' for Inactive)
REMARK    1  A    between atoms: _1  and  _3
REMARK    2  A    between atoms: _3  and  _4
REMARK    3  A    between atoms: _3  and  _6
REMARK    4  A    between atoms: _6  and  _7
REMARK    5  A    between atoms: _17  and  _19
REMARK    6  A    between atoms: _19  and  _20
REMARK    7  A    between atoms: _19  and  _22
REMARK    8  A    between atoms: _22  and  _23
REMARK    9  A    between atoms: _28  and  _29
REMARK   10  A    between atoms: _31  and  _33
REMARK   11  A    between atoms: _33  and  _34
REMARK   12  A    between atoms: _33  and  _36
REMARK   13  A    between atoms: _36  and  _37
REMARK   14  A    between atoms: _39  and  _41
REMARK   15  A    between atoms: _41  and  _42
REMARK   16  A    between atoms: _41  and  _44
REMARK   17  A    between atoms: _44  and  _45
REMARK   18  A    between atoms: _50  and  _52
REMARK   19  A    between atoms: _52  and  _53
REMARK   20  A    between atoms: _52  and  _55
REMARK   21  A    between atoms: _55  and  _56
REMARK   22  A    between atoms: _61  and  _63
REMARK   23  A    between atoms: _63  and  _64
REMARK   24  A    between atoms: _67  and  _69
REMARK   25  A    between atoms: _69  and  _70
REMARK   26  A    between atoms: _69  and  _72
REMARK   27  A    between atoms: _72  and  _73
REMARK   28  A    between atoms: _79  and  _81
REMARK   29  A    between atoms: _81  and  _82
REMARK   30  A    between atoms: _81  and  _84
REMARK   31  A    between atoms: _84  and  _85
REMARK   32  A    between atoms: _90  and  _92
REMARK   33  A    between atoms: _92  and  _93
REMARK   34  A    between atoms: _92  and  _95
REMARK   35  A    between atoms: _95  and  _96
REMARK   36  A    between atoms: _99  and  _101
REMARK   37  A    between atoms: _101  and  _102
REMARK   38  A    between atoms: _101  and  _104
REMARK   39  A    between atoms: _104  and  _105
REMARK   40  A    between atoms: _105  and  _106
REMARK   41  A    between atoms: _111  and  _113
REMARK   42  A    between atoms: _113  and  _114
REMARK   43  A    between atoms: _113  and  _116
REMARK   44  A    between atoms: _116  and  _117
REMARK   45  A    between atoms: _123  and  _125
REMARK   46  A    between atoms: _136  and  _139
REMARK   47  A    between atoms: _139  and  _140
REMARK   48  A    between atoms: _148  and  _149
REMARK   49  A    between atoms: _157  and  _159
REMARK   50  A    between atoms: _159  and  _160
REMARK   51  A    between atoms: _159  and  _162
REMARK   52  A    between atoms: _162  and  _163
REMARK   53  A    between atoms: _163  and  _164
REMARK   54  A    between atoms: _167  and  _169
REMARK   55  A    between atoms: _169  and  _170
REMARK   56  A    between atoms: _169  and  _172
REMARK   57  A    between atoms: _172  and  _173
REMARK   58  A    between atoms: _178  and  _180
REMARK   59  A    between atoms: _180  and  _181
REMARK   60  A    between atoms: _180  and  _183
REMARK   61  A    between atoms: _183  and  _184
REMARK   62  A    between atoms: _184  and  _185
REMARK   63  A    between atoms: _188  and  _190
REMARK   64  A    between atoms: _190  and  _191
REMARK   65  A    between atoms: _190  and  _193
REMARK   66  A    between atoms: _193  and  _194
REMARK   67  A    between atoms: _197  and  _199
REMARK   68  A    between atoms: _199  and  _200
REMARK   69  A    between atoms: _199  and  _202
REMARK   70  A    between atoms: _202  and  _203
REMARK   71  A    between atoms: _204  and  ZN_392
REMARK   72  A    between atoms: _208  and  _210
REMARK   73  A    between atoms: _210  and  _211
REMARK   74  A    between atoms: _210  and  _213
REMARK   75  A    between atoms: _213  and  _214
REMARK   76  A    between atoms: _217  and  _219
REMARK   77  A    between atoms: _219  and  _220
REMARK   78  A    between atoms: _219  and  _222
REMARK   79  A    between atoms: _225  and  _227
REMARK   80  A    between atoms: _227  and  _228
REMARK   81  A    between atoms: _227  and  _230
REMARK   82  A    between atoms: _230  and  _231
REMARK   83  A    between atoms: _236  and  _238
REMARK   84  A    between atoms: _238  and  _239
REMARK   85  A    between atoms: _238  and  _241
REMARK   86  A    between atoms: _241  and  _242
REMARK   87  A    between atoms: _248  and  _250
REMARK   88  A    between atoms: _250  and  _251
REMARK   89  A    between atoms: _250  and  _253
REMARK   90  A    between atoms: _256  and  _258
REMARK   91  A    between atoms: _258  and  _259
REMARK   92  A    between atoms: _258  and  _261
REMARK   93  A    between atoms: _261  and  _262
REMARK   94  A    between atoms: _265  and  _267
REMARK   95  A    between atoms: _267  and  _268
REMARK   96  A    between atoms: _267  and  _270
REMARK   97  A    between atoms: _273  and  _275
REMARK   98  A    between atoms: _275  and  _276
REMARK   99  A    between atoms: _275  and  _278
REMARK  100  A    between atoms: _278  and  _279
REMARK  101  A    between atoms: _281  and  _283
REMARK  102  A    between atoms: _283  and  _284
REMARK  103  A    between atoms: _283  and  _286
REMARK  104  A    between atoms: _286  and  _287
REMARK  105  A    between atoms: _290  and  _292
REMARK  106  A    between atoms: _292  and  _293
REMARK  107  A    between atoms: _292  and  _295
REMARK  108  A    between atoms: _295  and  _296
REMARK  109  A    between atoms: _299  and  _301
REMARK  110  A    between atoms: _301  and  _302
REMARK  111  A    between atoms: _301  and  _304
REMARK  112  A    between atoms: _304  and  _305
REMARK  113  A    between atoms: _309  and  _310
REMARK  114  A    between atoms: _316  and  _317
REMARK  115  A    between atoms: _322  and  _324
REMARK  116  A    between atoms: _324  and  _325
REMARK  117  A    between atoms: _324  and  _327
REMARK  118  A    between atoms: _327  and  _328
REMARK  119  A    between atoms: _331  and  _333
REMARK  120  A    between atoms: _333  and  _334
REMARK  121  A    between atoms: _333  and  _336
REMARK  122  A    between atoms: _336  and  _337
REMARK  123  A    between atoms: _340  and  _342
REMARK  124  A    between atoms: _342  and  _343
REMARK  125  A    between atoms: _342  and  _345
REMARK  126  A    between atoms: _348  and  _350
REMARK  127  A    between atoms: _350  and  _351
REMARK  128  A    between atoms: _350  and  _353
REMARK  129  A    between atoms: _353  and  _354
REMARK  130  A    between atoms: _364  and  _366
REMARK  131  A    between atoms: _366  and  _367
REMARK  132  A    between atoms: _366  and  _369
REMARK  133  A    between atoms: _369  and  _370
REMARK  134  A    between atoms: _375  and  _377
REMARK  135  A    between atoms: _377  and  _378
REMARK  136  A    between atoms: _377  and  _380
REMARK  137  A    between atoms: _380  and  _381
REMARK  138  A    between atoms: _381  and  _382
REMARK  139  A    between atoms: _382  and  _383
REMARK                            x       y       z     vdW  Elec       q    Type
REMARK                         _______ _______ _______ _____ _____    ______ ____
ROOT
ATOM      1  O   HOH     1      18.692  -3.446  11.351  0.00  0.00    +0.000 OA
ENDROOT
TORSDOF 0
REMARK  Name = ../refined-set-2016/4q81/4q81_pocket.pdb
REMARK  139 active torsions:
REMARK  status: ('A' for Active; 'I' for Inactive)
REMARK    1  A    between atoms: _1  and  _3
REMARK    2  A    between atoms: _3  and  _4
REMARK    3  A    between atoms: _3  and  _6
REMARK    4  A    between atoms: _6  and  _7
REMARK    5  A    between atoms: _17  and  _19
REMARK    6  A    between atoms: _19  and  _20
REMARK    7  A    between atoms: _19  and  _22
REMARK    8  A    between atoms: _22  and  _23
REMARK    9  A    between atoms: _28  and  _29
REMARK   10  A    between atoms: _31  and  _33
REMARK   11  A    between atoms: _33  and  _34
REMARK   12  A    between atoms: _33  and  _36
REMARK   13  A    between atoms: _36  and  _37
REMARK   14  A    between atoms: _39  and  _41
REMARK   15  A    between atoms: _41  and  _42
REMARK   16  A    between atoms: _41  and  _44
REMARK   17  A    between atoms: _44  and  _45
REMARK   18  A    between atoms: _50  and  _52
REMARK   19  A    between atoms: _52  and  _53
REMARK   20  A    between atoms: _52  and  _55
REMARK   21  A    between atoms: _55  and  _56
REMARK   22  A    between atoms: _61  and  _63
REMARK   23  A    between atoms: _63  and  _64
REMARK   24  A    between atoms: _67  and  _69
REMARK   25  A    between atoms: _69  and  _70
REMARK   26  A    between atoms: _69  and  _72
REMARK   27  A    between atoms: _72  and  _73
REMARK   28  A    between atoms: _79  and  _81
REMARK   29  A    between atoms: _81  and  _82
REMARK   30  A    between atoms: _81  and  _84
REMARK   31  A    between atoms: _84  and  _85
REMARK   32  A    between atoms: _90  and  _92
REMARK   33  A    between atoms: _92  and  _93
REMARK   34  A    between atoms: _92  and  _95
REMARK   35  A    between atoms: _95  and  _96
REMARK   36  A    between atoms: _99  and  _101
REMARK   37  A    between atoms: _101  and  _102
REMARK   38  A    between atoms: _101  and  _104
REMARK   39  A    between atoms: _104  and  _105
REMARK   40  A    between atoms: _105  and  _106
REMARK   41  A    between atoms: _111  and  _113
REMARK   42  A    between atoms: _113  and  _114
REMARK   43  A    between atoms: _113  and  _116
REMARK   44  A    between atoms: _116  and  _117
REMARK   45  A    between atoms: _123  and  _125
REMARK   46  A    between atoms: _136  and  _139
REMARK   47  A    between atoms: _139  and  _140
REMARK   48  A    between atoms: _148  and  _149
REMARK   49  A    between atoms: _157  and  _159
REMARK   50  A    between atoms: _159  and  _160
REMARK   51  A    between atoms: _159  and  _162
REMARK   52  A    between atoms: _162  and  _163
REMARK   53  A    between atoms: _163  and  _164
REMARK   54  A    between atoms: _167  and  _169
REMARK   55  A    between atoms: _169  and  _170
REMARK   56  A    between atoms: _169  and  _172
REMARK   57  A    between atoms: _172  and  _173
REMARK   58  A    between atoms: _178  and  _180
REMARK   59  A    between atoms: _180  and  _181
REMARK   60  A    between atoms: _180  and  _183
REMARK   61  A    between atoms: _183  and  _184
REMARK   62  A    between atoms: _184  and  _185
REMARK   63  A    between atoms: _188  and  _190
REMARK   64  A    between atoms: _190  and  _191
REMARK   65  A    between atoms: _190  and  _193
REMARK   66  A    between atoms: _193  and  _194
REMARK   67  A    between atoms: _197  and  _199
REMARK   68  A    between atoms: _199  and  _200
REMARK   69  A    between atoms: _199  and  _202
REMARK   70  A    between atoms: _202  and  _203
REMARK   71  A    between atoms: _204  and  ZN_392
REMARK   72  A    between atoms: _208  and  _210
REMARK   73  A    between atoms: _210  and  _211
REMARK   74  A    between atoms: _210  and  _213
REMARK   75  A    between atoms: _213  and  _214
REMARK   76  A    between atoms: _217  and  _219
REMARK   77  A    between atoms: _219  and  _220
REMARK   78  A    between atoms: _219  and  _222
REMARK   79  A    between atoms: _225  and  _227
REMARK   80  A    between atoms: _227  and  _228
REMARK   81  A    between atoms: _227  and  _230
REMARK   82  A    between atoms: _230  and  _231
REMARK   83  A    between atoms: _236  and  _238
REMARK   84  A    between atoms: _238  and  _239
REMARK   85  A    between atoms: _238  and  _241
REMARK   86  A    between atoms: _241  and  _242
REMARK   87  A    between atoms: _248  and  _250
REMARK   88  A    between atoms: _250  and  _251
REMARK   89  A    between atoms: _250  and  _253
REMARK   90  A    between atoms: _256  and  _258
REMARK   91  A    between atoms: _258  and  _259
REMARK   92  A    between atoms: _258  and  _261
REMARK   93  A    between atoms: _261  and  _262
REMARK   94  A    between atoms: _265  and  _267
REMARK   95  A    between atoms: _267  and  _268
REMARK   96  A    between atoms: _267  and  _270
REMARK   97  A    between atoms: _273  and  _275
REMARK   98  A    between atoms: _275  and  _276
REMARK   99  A    between atoms: _275  and  _278
REMARK  100  A    between atoms: _278  and  _279
REMARK  101  A    between atoms: _281  and  _283
REMARK  102  A    between atoms: _283  and  _284
REMARK  103  A    between atoms: _283  and  _286
REMARK  104  A    between atoms: _286  and  _287
REMARK  105  A    between atoms: _290  and  _292
REMARK  106  A    between atoms: _292  and  _293
REMARK  107  A    between atoms: _292  and  _295
REMARK  108  A    between atoms: _295  and  _296
REMARK  109  A    between atoms: _299  and  _301
REMARK  110  A    between atoms: _301  and  _302
REMARK  111  A    between atoms: _301  and  _304
REMARK  112  A    between atoms: _304  and  _305
REMARK  113  A    between atoms: _309  and  _310
REMARK  114  A    between atoms: _316  and  _317
REMARK  115  A    between atoms: _322  and  _324
REMARK  116  A    between atoms: _324  and  _325
REMARK  117  A    between atoms: _324  and  _327
REMARK  118  A    between atoms: _327  and  _328
REMARK  119  A    between atoms: _331  and  _333
REMARK  120  A    between atoms: _333  and  _334
REMARK  121  A    between atoms: _333  and  _336
REMARK  122  A    between atoms: _336  and  _337
REMARK  123  A    between atoms: _340  and  _342
REMARK  124  A    between atoms: _342  and  _343
REMARK  125  A    between atoms: _342  and  _345
REMARK  126  A    between atoms: _348  and  _350
REMARK  127  A    between atoms: _350  and  _351
REMARK  128  A    between atoms: _350  and  _353
REMARK  129  A    between atoms: _353  and  _354
REMARK  130  A    between atoms: _364  and  _366
REMARK  131  A    between atoms: _366  and  _367
REMARK  132  A    between atoms: _366  and  _369
REMARK  133  A    between atoms: _369  and  _370
REMARK  134  A    between atoms: _375  and  _377
REMARK  135  A    between atoms: _377  and  _378
REMARK  136  A    between atoms: _377  and  _380
REMARK  137  A    between atoms: _380  and  _381
REMARK  138  A    between atoms: _381  and  _382
REMARK  139  A    between atoms: _382  and  _383
REMARK                            x       y       z     vdW  Elec       q    Type
REMARK                         _______ _______ _______ _____ _____    ______ ____
ROOT
ATOM      1  O   HOH     1      19.795  -4.370  15.737  0.00  0.00    +0.000 OA
ENDROOT
TORSDOF 0
REMARK  Name = ../refined-set-2016/4q81/4q81_pocket.pdb
REMARK  139 active torsions:
REMARK  status: ('A' for Active; 'I' for Inactive)
REMARK    1  A    between atoms: _1  and  _3
REMARK    2  A    between atoms: _3  and  _4
REMARK    3  A    between atoms: _3  and  _6
REMARK    4  A    between atoms: _6  and  _7
REMARK    5  A    between atoms: _17  and  _19
REMARK    6  A    between atoms: _19  and  _20
REMARK    7  A    between atoms: _19  and  _22
REMARK    8  A    between atoms: _22  and  _23
REMARK    9  A    between atoms: _28  and  _29
REMARK   10  A    between atoms: _31  and  _33
REMARK   11  A    between atoms: _33  and  _34
REMARK   12  A    between atoms: _33  and  _36
REMARK   13  A    between atoms: _36  and  _37
REMARK   14  A    between atoms: _39  and  _41
REMARK   15  A    between atoms: _41  and  _42
REMARK   16  A    between atoms: _41  and  _44
REMARK   17  A    between atoms: _44  and  _45
REMARK   18  A    between atoms: _50  and  _52
REMARK   19  A    between atoms: _52  and  _53
REMARK   20  A    between atoms: _52  and  _55
REMARK   21  A    between atoms: _55  and  _56
REMARK   22  A    between atoms: _61  and  _63
REMARK   23  A    between atoms: _63  and  _64
REMARK   24  A    between atoms: _67  and  _69
REMARK   25  A    between atoms: _69  and  _70
REMARK   26  A    between atoms: _69  and  _72
REMARK   27  A    between atoms: _72  and  _73
REMARK   28  A    between atoms: _79  and  _81
REMARK   29  A    between atoms: _81  and  _82
REMARK   30  A    between atoms: _81  and  _84
REMARK   31  A    between atoms: _84  and  _85
REMARK   32  A    between atoms: _90  and  _92
REMARK   33  A    between atoms: _92  and  _93
REMARK   34  A    between atoms: _92  and  _95
REMARK   35  A    between atoms: _95  and  _96
REMARK   36  A    between atoms: _99  and  _101
REMARK   37  A    between atoms: _101  and  _102
REMARK   38  A    between atoms: _101  and  _104
REMARK   39  A    between atoms: _104  and  _105
REMARK   40  A    between atoms: _105  and  _106
REMARK   41  A    between atoms: _111  and  _113
REMARK   42  A    between atoms: _113  and  _114
REMARK   43  A    between atoms: _113  and  _116
REMARK   44  A    between atoms: _116  and  _117
REMARK   45  A    between atoms: _123  and  _125
REMARK   46  A    between atoms: _136  and  _139
REMARK   47  A    between atoms: _139  and  _140
REMARK   48  A    between atoms: _148  and  _149
REMARK   49  A    between atoms: _157  and  _159
REMARK   50  A    between atoms: _159  and  _160
REMARK   51  A    between atoms: _159  and  _162
REMARK   52  A    between atoms: _162  and  _163
REMARK   53  A    between atoms: _163  and  _164
REMARK   54  A    between atoms: _167  and  _169
REMARK   55  A    between atoms: _169  and  _170
REMARK   56  A    between atoms: _169  and  _172
REMARK   57  A    between atoms: _172  and  _173
REMARK   58  A    between atoms: _178  and  _180
REMARK   59  A    between atoms: _180  and  _181
REMARK   60  A    between atoms: _180  and  _183
REMARK   61  A    between atoms: _183  and  _184
REMARK   62  A    between atoms: _184  and  _185
REMARK   63  A    between atoms: _188  and  _190
REMARK   64  A    between atoms: _190  and  _191
REMARK   65  A    between atoms: _190  and  _193
REMARK   66  A    between atoms: _193  and  _194
REMARK   67  A    between atoms: _197  and  _199
REMARK   68  A    between atoms: _199  and  _200
REMARK   69  A    between atoms: _199  and  _202
REMARK   70  A    between atoms: _202  and  _203
REMARK   71  A    between atoms: _204  and  ZN_392
REMARK   72  A    between atoms: _208  and  _210
REMARK   73  A    between atoms: _210  and  _211
REMARK   74  A    between atoms: _210  and  _213
REMARK   75  A    between atoms: _213  and  _214
REMARK   76  A    between atoms: _217  and  _219
REMARK   77  A    between atoms: _219  and  _220
REMARK   78  A    between atoms: _219  and  _222
REMARK   79  A    between atoms: _225  and  _227
REMARK   80  A    between atoms: _227  and  _228
REMARK   81  A    between atoms: _227  and  _230
REMARK   82  A    between atoms: _230  and  _231
REMARK   83  A    between atoms: _236  and  _238
REMARK   84  A    between atoms: _238  and  _239
REMARK   85  A    between atoms: _238  and  _241
REMARK   86  A    between atoms: _241  and  _242
REMARK   87  A    between atoms: _248  and  _250
REMARK   88  A    between atoms: _250  and  _251
REMARK   89  A    between atoms: _250  and  _253
REMARK   90  A    between atoms: _256  and  _258
REMARK   91  A    between atoms: _258  and  _259
REMARK   92  A    between atoms: _258  and  _261
REMARK   93  A    between atoms: _261  and  _262
REMARK   94  A    between atoms: _265  and  _267
REMARK   95  A    between atoms: _267  and  _268
REMARK   96  A    between atoms: _267  and  _270
REMARK   97  A    between atoms: _273  and  _275
REMARK   98  A    between atoms: _275  and  _276
REMARK   99  A    between atoms: _275  and  _278
REMARK  100  A    between atoms: _278  and  _279
REMARK  101  A    between atoms: _281  and  _283
REMARK  102  A    between atoms: _283  and  _284
REMARK  103  A    between atoms: _283  and  _286
REMARK  104  A    between atoms: _286  and  _287
REMARK  105  A    between atoms: _290  and  _292
REMARK  106  A    between atoms: _292  and  _293
REMARK  107  A    between atoms: _292  and  _295
REMARK  108  A    between atoms: _295  and  _296
REMARK  109  A    between atoms: _299  and  _301
REMARK  110  A    between atoms: _301  and  _302
REMARK  111  A    between atoms: _301  and  _304
REMARK  112  A    between atoms: _304  and  _305
REMARK  113  A    between atoms: _309  and  _310
REMARK  114  A    between atoms: _316  and  _317
REMARK  115  A    between atoms: _322  and  _324
REMARK  116  A    between atoms: _324  and  _325
REMARK  117  A    between atoms: _324  and  _327
REMARK  118  A    between atoms: _327  and  _328
REMARK  119  A    between atoms: _331  and  _333
REMARK  120  A    between atoms: _333  and  _334
REMARK  121  A    between atoms: _333  and  _336
REMARK  122  A    between atoms: _336  and  _337
REMARK  123  A    between atoms: _340  and  _342
REMARK  124  A    between atoms: _342  and  _343
REMARK  125  A    between atoms: _342  and  _345
REMARK  126  A    between atoms: _348  and  _350
REMARK  127  A    between atoms: _350  and  _351
REMARK  128  A    between atoms: _350  and  _353
REMARK  129  A    between atoms: _353  and  _354
REMARK  130  A    between atoms: _364  and  _366
REMARK  131  A    between atoms: _366  and  _367
REMARK  132  A    between atoms: _366  and  _369
REMARK  133  A    between atoms: _369  and  _370
REMARK  134  A    between atoms: _375  and  _377
REMARK  135  A    between atoms: _377  and  _378
REMARK  136  A    between atoms: _377  and  _380
REMARK  137  A    between atoms: _380  and  _381
REMARK  138  A    between atoms: _381  and  _382
REMARK  139  A    between atoms: _382  and  _383
REMARK                            x       y       z     vdW  Elec       q    Type
REMARK                         _______ _______ _______ _____ _____    ______ ____
ROOT
ATOM      1  O   HOH     1      17.026   4.189   9.981  0.00  0.00    +0.000 OA
ENDROOT
TORSDOF 0
REMARK  Name = ../refined-set-2016/4q81/4q81_pocket.pdb
REMARK  139 active torsions:
REMARK  status: ('A' for Active; 'I' for Inactive)
REMARK    1  A    between atoms: _1  and  _3
REMARK    2  A    between atoms: _3  and  _4
REMARK    3  A    between atoms: _3  and  _6
REMARK    4  A    between atoms: _6  and  _7
REMARK    5  A    between atoms: _17  and  _19
REMARK    6  A    between atoms: _19  and  _20
REMARK    7  A    between atoms: _19  and  _22
REMARK    8  A    between atoms: _22  and  _23
REMARK    9  A    between atoms: _28  and  _29
REMARK   10  A    between atoms: _31  and  _33
REMARK   11  A    between atoms: _33  and  _34
REMARK   12  A    between atoms: _33  and  _36
REMARK   13  A    between atoms: _36  and  _37
REMARK   14  A    between atoms: _39  and  _41
REMARK   15  A    between atoms: _41  and  _42
REMARK   16  A    between atoms: _41  and  _44
REMARK   17  A    between atoms: _44  and  _45
REMARK   18  A    between atoms: _50  and  _52
REMARK   19  A    between atoms: _52  and  _53
REMARK   20  A    between atoms: _52  and  _55
REMARK   21  A    between atoms: _55  and  _56
REMARK   22  A    between atoms: _61  and  _63
REMARK   23  A    between atoms: _63  and  _64
REMARK   24  A    between atoms: _67  and  _69
REMARK   25  A    between atoms: _69  and  _70
REMARK   26  A    between atoms: _69  and  _72
REMARK   27  A    between atoms: _72  and  _73
REMARK   28  A    between atoms: _79  and  _81
REMARK   29  A    between atoms: _81  and  _82
REMARK   30  A    between atoms: _81  and  _84
REMARK   31  A    between atoms: _84  and  _85
REMARK   32  A    between atoms: _90  and  _92
REMARK   33  A    between atoms: _92  and  _93
REMARK   34  A    between atoms: _92  and  _95
REMARK   35  A    between atoms: _95  and  _96
REMARK   36  A    between atoms: _99  and  _101
REMARK   37  A    between atoms: _101  and  _102
REMARK   38  A    between atoms: _101  and  _104
REMARK   39  A    between atoms: _104  and  _105
REMARK   40  A    between atoms: _105  and  _106
REMARK   41  A    between atoms: _111  and  _113
REMARK   42  A    between atoms: _113  and  _114
REMARK   43  A    between atoms: _113  and  _116
REMARK   44  A    between atoms: _116  and  _117
REMARK   45  A    between atoms: _123  and  _125
REMARK   46  A    between atoms: _136  and  _139
REMARK   47  A    between atoms: _139  and  _140
REMARK   48  A    between atoms: _148  and  _149
REMARK   49  A    between atoms: _157  and  _159
REMARK   50  A    between atoms: _159  and  _160
REMARK   51  A    between atoms: _159  and  _162
REMARK   52  A    between atoms: _162  and  _163
REMARK   53  A    between atoms: _163  and  _164
REMARK   54  A    between atoms: _167  and  _169
REMARK   55  A    between atoms: _169  and  _170
REMARK   56  A    between atoms: _169  and  _172
REMARK   57  A    between atoms: _172  and  _173
REMARK   58  A    between atoms: _178  and  _180
REMARK   59  A    between atoms: _180  and  _181
REMARK   60  A    between atoms: _180  and  _183
REMARK   61  A    between atoms: _183  and  _184
REMARK   62  A    between atoms: _184  and  _185
REMARK   63  A    between atoms: _188  and  _190
REMARK   64  A    between atoms: _190  and  _191
REMARK   65  A    between atoms: _190  and  _193
REMARK   66  A    between atoms: _193  and  _194
REMARK   67  A    between atoms: _197  and  _199
REMARK   68  A    between atoms: _199  and  _200
REMARK   69  A    between atoms: _199  and  _202
REMARK   70  A    between atoms: _202  and  _203
REMARK   71  A    between atoms: _204  and  ZN_392
REMARK   72  A    between atoms: _208  and  _210
REMARK   73  A    between atoms: _210  and  _211
REMARK   74  A    between atoms: _210  and  _213
REMARK   75  A    between atoms: _213  and  _214
REMARK   76  A    between atoms: _217  and  _219
REMARK   77  A    between atoms: _219  and  _220
REMARK   78  A    between atoms: _219  and  _222
REMARK   79  A    between atoms: _225  and  _227
REMARK   80  A    between atoms: _227  and  _228
REMARK   81  A    between atoms: _227  and  _230
REMARK   82  A    between atoms: _230  and  _231
REMARK   83  A    between atoms: _236  and  _238
REMARK   84  A    between atoms: _238  and  _239
REMARK   85  A    between atoms: _238  and  _241
REMARK   86  A    between atoms: _241  and  _242
REMARK   87  A    between atoms: _248  and  _250
REMARK   88  A    between atoms: _250  and  _251
REMARK   89  A    between atoms: _250  and  _253
REMARK   90  A    between atoms: _256  and  _258
REMARK   91  A    between atoms: _258  and  _259
REMARK   92  A    between atoms: _258  and  _261
REMARK   93  A    between atoms: _261  and  _262
REMARK   94  A    between atoms: _265  and  _267
REMARK   95  A    between atoms: _267  and  _268
REMARK   96  A    between atoms: _267  and  _270
REMARK   97  A    between atoms: _273  and  _275
REMARK   98  A    between atoms: _275  and  _276
REMARK   99  A    between atoms: _275  and  _278
REMARK  100  A    between atoms: _278  and  _279
REMARK  101  A    between atoms: _281  and  _283
REMARK  102  A    between atoms: _283  and  _284
REMARK  103  A    between atoms: _283  and  _286
REMARK  104  A    between atoms: _286  and  _287
REMARK  105  A    between atoms: _290  and  _292
REMARK  106  A    between atoms: _292  and  _293
REMARK  107  A    between atoms: _292  and  _295
REMARK  108  A    between atoms: _295  and  _296
REMARK  109  A    between atoms: _299  and  _301
REMARK  110  A    between atoms: _301  and  _302
REMARK  111  A    between atoms: _301  and  _304
REMARK  112  A    between atoms: _304  and  _305
REMARK  113  A    between atoms: _309  and  _310
REMARK  114  A    between atoms: _316  and  _317
REMARK  115  A    between atoms: _322  and  _324
REMARK  116  A    between atoms: _324  and  _325
REMARK  117  A    between atoms: _324  and  _327
REMARK  118  A    between atoms: _327  and  _328
REMARK  119  A    between atoms: _331  and  _333
REMARK  120  A    between atoms: _333  and  _334
REMARK  121  A    between atoms: _333  and  _336
REMARK  122  A    between atoms: _336  and  _337
REMARK  123  A    between atoms: _340  and  _342
REMARK  124  A    between atoms: _342  and  _343
REMARK  125  A    between atoms: _342  and  _345
REMARK  126  A    between atoms: _348  and  _350
REMARK  127  A    between atoms: _350  and  _351
REMARK  128  A    between atoms: _350  and  _353
REMARK  129  A    between atoms: _353  and  _354
REMARK  130  A    between atoms: _364  and  _366
REMARK  131  A    between atoms: _366  and  _367
REMARK  132  A    between atoms: _366  and  _369
REMARK  133  A    between atoms: _369  and  _370
REMARK  134  A    between atoms: _375  and  _377
REMARK  135  A    between atoms: _377  and  _378
REMARK  136  A    between atoms: _377  and  _380
REMARK  137  A    between atoms: _380  and  _381
REMARK  138  A    between atoms: _381  and  _382
REMARK  139  A    between atoms: _382  and  _383
REMARK                            x       y       z     vdW  Elec       q    Type
REMARK                         _______ _______ _______ _____ _____    ______ ____
ROOT
ATOM      1  O   HOH     1      19.769   3.307  13.845  0.00  0.00    +0.000 OA
ENDROOT
TORSDOF 0
REMARK  Name = ../refined-set-2016/4q81/4q81_pocket.pdb
REMARK  139 active torsions:
REMARK  status: ('A' for Active; 'I' for Inactive)
REMARK    1  A    between atoms: _1  and  _3
REMARK    2  A    between atoms: _3  and  _4
REMARK    3  A    between atoms: _3  and  _6
REMARK    4  A    between atoms: _6  and  _7
REMARK    5  A    between atoms: _17  and  _19
REMARK    6  A    between atoms: _19  and  _20
REMARK    7  A    between atoms: _19  and  _22
REMARK    8  A    between atoms: _22  and  _23
REMARK    9  A    between atoms: _28  and  _29
REMARK   10  A    between atoms: _31  and  _33
REMARK   11  A    between atoms: _33  and  _34
REMARK   12  A    between atoms: _33  and  _36
REMARK   13  A    between atoms: _36  and  _37
REMARK   14  A    between atoms: _39  and  _41
REMARK   15  A    between atoms: _41  and  _42
REMARK   16  A    between atoms: _41  and  _44
REMARK   17  A    between atoms: _44  and  _45
REMARK   18  A    between atoms: _50  and  _52
REMARK   19  A    between atoms: _52  and  _53
REMARK   20  A    between atoms: _52  and  _55
REMARK   21  A    between atoms: _55  and  _56
REMARK   22  A    between atoms: _61  and  _63
REMARK   23  A    between atoms: _63  and  _64
REMARK   24  A    between atoms: _67  and  _69
REMARK   25  A    between atoms: _69  and  _70
REMARK   26  A    between atoms: _69  and  _72
REMARK   27  A    between atoms: _72  and  _73
REMARK   28  A    between atoms: _79  and  _81
REMARK   29  A    between atoms: _81  and  _82
REMARK   30  A    between atoms: _81  and  _84
REMARK   31  A    between atoms: _84  and  _85
REMARK   32  A    between atoms: _90  and  _92
REMARK   33  A    between atoms: _92  and  _93
REMARK   34  A    between atoms: _92  and  _95
REMARK   35  A    between atoms: _95  and  _96
REMARK   36  A    between atoms: _99  and  _101
REMARK   37  A    between atoms: _101  and  _102
REMARK   38  A    between atoms: _101  and  _104
REMARK   39  A    between atoms: _104  and  _105
REMARK   40  A    between atoms: _105  and  _106
REMARK   41  A    between atoms: _111  and  _113
REMARK   42  A    between atoms: _113  and  _114
REMARK   43  A    between atoms: _113  and  _116
REMARK   44  A    between atoms: _116  and  _117
REMARK   45  A    between atoms: _123  and  _125
REMARK   46  A    between atoms: _136  and  _139
REMARK   47  A    between atoms: _139  and  _140
REMARK   48  A    between atoms: _148  and  _149
REMARK   49  A    between atoms: _157  and  _159
REMARK   50  A    between atoms: _159  and  _160
REMARK   51  A    between atoms: _159  and  _162
REMARK   52  A    between atoms: _162  and  _163
REMARK   53  A    between atoms: _163  and  _164
REMARK   54  A    between atoms: _167  and  _169
REMARK   55  A    between atoms: _169  and  _170
REMARK   56  A    between atoms: _169  and  _172
REMARK   57  A    between atoms: _172  and  _173
REMARK   58  A    between atoms: _178  and  _180
REMARK   59  A    between atoms: _180  and  _181
REMARK   60  A    between atoms: _180  and  _183
REMARK   61  A    between atoms: _183  and  _184
REMARK   62  A    between atoms: _184  and  _185
REMARK   63  A    between atoms: _188  and  _190
REMARK   64  A    between atoms: _190  and  _191
REMARK   65  A    between atoms: _190  and  _193
REMARK   66  A    between atoms: _193  and  _194
REMARK   67  A    between atoms: _197  and  _199
REMARK   68  A    between atoms: _199  and  _200
REMARK   69  A    between atoms: _199  and  _202
REMARK   70  A    between atoms: _202  and  _203
REMARK   71  A    between atoms: _204  and  ZN_392
REMARK   72  A    between atoms: _208  and  _210
REMARK   73  A    between atoms: _210  and  _211
REMARK   74  A    between atoms: _210  and  _213
REMARK   75  A    between atoms: _213  and  _214
REMARK   76  A    between atoms: _217  and  _219
REMARK   77  A    between atoms: _219  and  _220
REMARK   78  A    between atoms: _219  and  _222
REMARK   79  A    between atoms: _225  and  _227
REMARK   80  A    between atoms: _227  and  _228
REMARK   81  A    between atoms: _227  and  _230
REMARK   82  A    between atoms: _230  and  _231
REMARK   83  A    between atoms: _236  and  _238
REMARK   84  A    between atoms: _238  and  _239
REMARK   85  A    between atoms: _238  and  _241
REMARK   86  A    between atoms: _241  and  _242
REMARK   87  A    between atoms: _248  and  _250
REMARK   88  A    between atoms: _250  and  _251
REMARK   89  A    between atoms: _250  and  _253
REMARK   90  A    between atoms: _256  and  _258
REMARK   91  A    between atoms: _258  and  _259
REMARK   92  A    between atoms: _258  and  _261
REMARK   93  A    between atoms: _261  and  _262
REMARK   94  A    between atoms: _265  and  _267
REMARK   95  A    between atoms: _267  and  _268
REMARK   96  A    between atoms: _267  and  _270
REMARK   97  A    between atoms: _273  and  _275
REMARK   98  A    between atoms: _275  and  _276
REMARK   99  A    between atoms: _275  and  _278
REMARK  100  A    between atoms: _278  and  _279
REMARK  101  A    between atoms: _281  and  _283
REMARK  102  A    between atoms: _283  and  _284
REMARK  103  A    between atoms: _283  and  _286
REMARK  104  A    between atoms: _286  and  _287
REMARK  105  A    between atoms: _290  and  _292
REMARK  106  A    between atoms: _292  and  _293
REMARK  107  A    between atoms: _292  and  _295
REMARK  108  A    between atoms: _295  and  _296
REMARK  109  A    between atoms: _299  and  _301
REMARK  110  A    between atoms: _301  and  _302
REMARK  111  A    between atoms: _301  and  _304
REMARK  112  A    between atoms: _304  and  _305
REMARK  113  A    between atoms: _309  and  _310
REMARK  114  A    between atoms: _316  and  _317
REMARK  115  A    between atoms: _322  and  _324
REMARK  116  A    between atoms: _324  and  _325
REMARK  117  A    between atoms: _324  and  _327
REMARK  118  A    between atoms: _327  and  _328
REMARK  119  A    between atoms: _331  and  _333
REMARK  120  A    between atoms: _333  and  _334
REMARK  121  A    between atoms: _333  and  _336
REMARK  122  A    between atoms: _336  and  _337
REMARK  123  A    between atoms: _340  and  _342
REMARK  124  A    between atoms: _342  and  _343
REMARK  125  A    between atoms: _342  and  _345
REMARK  126  A    between atoms: _348  and  _350
REMARK  127  A    between atoms: _350  and  _351
REMARK  128  A    between atoms: _350  and  _353
REMARK  129  A    between atoms: _353  and  _354
REMARK  130  A    between atoms: _364  and  _366
REMARK  131  A    between atoms: _366  and  _367
REMARK  132  A    between atoms: _366  and  _369
REMARK  133  A    between atoms: _369  and  _370
REMARK  134  A    between atoms: _375  and  _377
REMARK  135  A    between atoms: _377  and  _378
REMARK  136  A    between atoms: _377  and  _380
REMARK  137  A    between atoms: _380  and  _381
REMARK  138  A    between atoms: _381  and  _382
REMARK  139  A    between atoms: _382  and  _383
REMARK                            x       y       z     vdW  Elec       q    Type
REMARK                         _______ _______ _______ _____ _____    ______ ____
ROOT
ATOM      1  O   HOH     1      14.455   6.496  10.408  0.00  0.00    +0.000 OA
ENDROOT
TORSDOF 0
REMARK  Name = ../refined-set-2016/4q81/4q81_pocket.pdb
REMARK  139 active torsions:
REMARK  status: ('A' for Active; 'I' for Inactive)
REMARK    1  A    between atoms: _1  and  _3
REMARK    2  A    between atoms: _3  and  _4
REMARK    3  A    between atoms: _3  and  _6
REMARK    4  A    between atoms: _6  and  _7
REMARK    5  A    between atoms: _17  and  _19
REMARK    6  A    between atoms: _19  and  _20
REMARK    7  A    between atoms: _19  and  _22
REMARK    8  A    between atoms: _22  and  _23
REMARK    9  A    between atoms: _28  and  _29
REMARK   10  A    between atoms: _31  and  _33
REMARK   11  A    between atoms: _33  and  _34
REMARK   12  A    between atoms: _33  and  _36
REMARK   13  A    between atoms: _36  and  _37
REMARK   14  A    between atoms: _39  and  _41
REMARK   15  A    between atoms: _41  and  _42
REMARK   16  A    between atoms: _41  and  _44
REMARK   17  A    between atoms: _44  and  _45
REMARK   18  A    between atoms: _50  and  _52
REMARK   19  A    between atoms: _52  and  _53
REMARK   20  A    between atoms: _52  and  _55
REMARK   21  A    between atoms: _55  and  _56
REMARK   22  A    between atoms: _61  and  _63
REMARK   23  A    between atoms: _63  and  _64
REMARK   24  A    between atoms: _67  and  _69
REMARK   25  A    between atoms: _69  and  _70
REMARK   26  A    between atoms: _69  and  _72
REMARK   27  A    between atoms: _72  and  _73
REMARK   28  A    between atoms: _79  and  _81
REMARK   29  A    between atoms: _81  and  _82
REMARK   30  A    between atoms: _81  and  _84
REMARK   31  A    between atoms: _84  and  _85
REMARK   32  A    between atoms: _90  and  _92
REMARK   33  A    between atoms: _92  and  _93
REMARK   34  A    between atoms: _92  and  _95
REMARK   35  A    between atoms: _95  and  _96
REMARK   36  A    between atoms: _99  and  _101
REMARK   37  A    between atoms: _101  and  _102
REMARK   38  A    between atoms: _101  and  _104
REMARK   39  A    between atoms: _104  and  _105
REMARK   40  A    between atoms: _105  and  _106
REMARK   41  A    between atoms: _111  and  _113
REMARK   42  A    between atoms: _113  and  _114
REMARK   43  A    between atoms: _113  and  _116
REMARK   44  A    between atoms: _116  and  _117
REMARK   45  A    between atoms: _123  and  _125
REMARK   46  A    between atoms: _136  and  _139
REMARK   47  A    between atoms: _139  and  _140
REMARK   48  A    between atoms: _148  and  _149
REMARK   49  A    between atoms: _157  and  _159
REMARK   50  A    between atoms: _159  and  _160
REMARK   51  A    between atoms: _159  and  _162
REMARK   52  A    between atoms: _162  and  _163
REMARK   53  A    between atoms: _163  and  _164
REMARK   54  A    between atoms: _167  and  _169
REMARK   55  A    between atoms: _169  and  _170
REMARK   56  A    between atoms: _169  and  _172
REMARK   57  A    between atoms: _172  and  _173
REMARK   58  A    between atoms: _178  and  _180
REMARK   59  A    between atoms: _180  and  _181
REMARK   60  A    between atoms: _180  and  _183
REMARK   61  A    between atoms: _183  and  _184
REMARK   62  A    between atoms: _184  and  _185
REMARK   63  A    between atoms: _188  and  _190
REMARK   64  A    between atoms: _190  and  _191
REMARK   65  A    between atoms: _190  and  _193
REMARK   66  A    between atoms: _193  and  _194
REMARK   67  A    between atoms: _197  and  _199
REMARK   68  A    between atoms: _199  and  _200
REMARK   69  A    between atoms: _199  and  _202
REMARK   70  A    between atoms: _202  and  _203
REMARK   71  A    between atoms: _204  and  ZN_392
REMARK   72  A    between atoms: _208  and  _210
REMARK   73  A    between atoms: _210  and  _211
REMARK   74  A    between atoms: _210  and  _213
REMARK   75  A    between atoms: _213  and  _214
REMARK   76  A    between atoms: _217  and  _219
REMARK   77  A    between atoms: _219  and  _220
REMARK   78  A    between atoms: _219  and  _222
REMARK   79  A    between atoms: _225  and  _227
REMARK   80  A    between atoms: _227  and  _228
REMARK   81  A    between atoms: _227  and  _230
REMARK   82  A    between atoms: _230  and  _231
REMARK   83  A    between atoms: _236  and  _238
REMARK   84  A    between atoms: _238  and  _239
REMARK   85  A    between atoms: _238  and  _241
REMARK   86  A    between atoms: _241  and  _242
REMARK   87  A    between atoms: _248  and  _250
REMARK   88  A    between atoms: _250  and  _251
REMARK   89  A    between atoms: _250  and  _253
REMARK   90  A    between atoms: _256  and  _258
REMARK   91  A    between atoms: _258  and  _259
REMARK   92  A    between atoms: _258  and  _261
REMARK   93  A    between atoms: _261  and  _262
REMARK   94  A    between atoms: _265  and  _267
REMARK   95  A    between atoms: _267  and  _268
REMARK   96  A    between atoms: _267  and  _270
REMARK   97  A    between atoms: _273  and  _275
REMARK   98  A    between atoms: _275  and  _276
REMARK   99  A    between atoms: _275  and  _278
REMARK  100  A    between atoms: _278  and  _279
REMARK  101  A    between atoms: _281  and  _283
REMARK  102  A    between atoms: _283  and  _284
REMARK  103  A    between atoms: _283  and  _286
REMARK  104  A    between atoms: _286  and  _287
REMARK  105  A    between atoms: _290  and  _292
REMARK  106  A    between atoms: _292  and  _293
REMARK  107  A    between atoms: _292  and  _295
REMARK  108  A    between atoms: _295  and  _296
REMARK  109  A    between atoms: _299  and  _301
REMARK  110  A    between atoms: _301  and  _302
REMARK  111  A    between atoms: _301  and  _304
REMARK  112  A    between atoms: _304  and  _305
REMARK  113  A    between atoms: _309  and  _310
REMARK  114  A    between atoms: _316  and  _317
REMARK  115  A    between atoms: _322  and  _324
REMARK  116  A    between atoms: _324  and  _325
REMARK  117  A    between atoms: _324  and  _327
REMARK  118  A    between atoms: _327  and  _328
REMARK  119  A    between atoms: _331  and  _333
REMARK  120  A    between atoms: _333  and  _334
REMARK  121  A    between atoms: _333  and  _336
REMARK  122  A    between atoms: _336  and  _337
REMARK  123  A    between atoms: _340  and  _342
REMARK  124  A    between atoms: _342  and  _343
REMARK  125  A    between atoms: _342  and  _345
REMARK  126  A    between atoms: _348  and  _350
REMARK  127  A    between atoms: _350  and  _351
REMARK  128  A    between atoms: _350  and  _353
REMARK  129  A    between atoms: _353  and  _354
REMARK  130  A    between atoms: _364  and  _366
REMARK  131  A    between atoms: _366  and  _367
REMARK  132  A    between atoms: _366  and  _369
REMARK  133  A    between atoms: _369  and  _370
REMARK  134  A    between atoms: _375  and  _377
REMARK  135  A    between atoms: _377  and  _378
REMARK  136  A    between atoms: _377  and  _380
REMARK  137  A    between atoms: _380  and  _381
REMARK  138  A    between atoms: _381  and  _382
REMARK  139  A    between atoms: _382  and  _383
REMARK                            x       y       z     vdW  Elec       q    Type
REMARK                         _______ _______ _______ _____ _____    ______ ____
ROOT
ATOM      1  O   HOH     1      16.946  -1.202  11.702  0.00  0.00    +0.000 OA
ENDROOT
TORSDOF 0
REMARK  Name = ../refined-set-2016/4q81/4q81_pocket.pdb
REMARK  139 active torsions:
REMARK  status: ('A' for Active; 'I' for Inactive)
REMARK    1  A    between atoms: _1  and  _3
REMARK    2  A    between atoms: _3  and  _4
REMARK    3  A    between atoms: _3  and  _6
REMARK    4  A    between atoms: _6  and  _7
REMARK    5  A    between atoms: _17  and  _19
REMARK    6  A    between atoms: _19  and  _20
REMARK    7  A    between atoms: _19  and  _22
REMARK    8  A    between atoms: _22  and  _23
REMARK    9  A    between atoms: _28  and  _29
REMARK   10  A    between atoms: _31  and  _33
REMARK   11  A    between atoms: _33  and  _34
REMARK   12  A    between atoms: _33  and  _36
REMARK   13  A    between atoms: _36  and  _37
REMARK   14  A    between atoms: _39  and  _41
REMARK   15  A    between atoms: _41  and  _42
REMARK   16  A    between atoms: _41  and  _44
REMARK   17  A    between atoms: _44  and  _45
REMARK   18  A    between atoms: _50  and  _52
REMARK   19  A    between atoms: _52  and  _53
REMARK   20  A    between atoms: _52  and  _55
REMARK   21  A    between atoms: _55  and  _56
REMARK   22  A    between atoms: _61  and  _63
REMARK   23  A    between atoms: _63  and  _64
REMARK   24  A    between atoms: _67  and  _69
REMARK   25  A    between atoms: _69  and  _70
REMARK   26  A    between atoms: _69  and  _72
REMARK   27  A    between atoms: _72  and  _73
REMARK   28  A    between atoms: _79  and  _81
REMARK   29  A    between atoms: _81  and  _82
REMARK   30  A    between atoms: _81  and  _84
REMARK   31  A    between atoms: _84  and  _85
REMARK   32  A    between atoms: _90  and  _92
REMARK   33  A    between atoms: _92  and  _93
REMARK   34  A    between atoms: _92  and  _95
REMARK   35  A    between atoms: _95  and  _96
REMARK   36  A    between atoms: _99  and  _101
REMARK   37  A    between atoms: _101  and  _102
REMARK   38  A    between atoms: _101  and  _104
REMARK   39  A    between atoms: _104  and  _105
REMARK   40  A    between atoms: _105  and  _106
REMARK   41  A    between atoms: _111  and  _113
REMARK   42  A    between atoms: _113  and  _114
REMARK   43  A    between atoms: _113  and  _116
REMARK   44  A    between atoms: _116  and  _117
REMARK   45  A    between atoms: _123  and  _125
REMARK   46  A    between atoms: _136  and  _139
REMARK   47  A    between atoms: _139  and  _140
REMARK   48  A    between atoms: _148  and  _149
REMARK   49  A    between atoms: _157  and  _159
REMARK   50  A    between atoms: _159  and  _160
REMARK   51  A    between atoms: _159  and  _162
REMARK   52  A    between atoms: _162  and  _163
REMARK   53  A    between atoms: _163  and  _164
REMARK   54  A    between atoms: _167  and  _169
REMARK   55  A    between atoms: _169  and  _170
REMARK   56  A    between atoms: _169  and  _172
REMARK   57  A    between atoms: _172  and  _173
REMARK   58  A    between atoms: _178  and  _180
REMARK   59  A    between atoms: _180  and  _181
REMARK   60  A    between atoms: _180  and  _183
REMARK   61  A    between atoms: _183  and  _184
REMARK   62  A    between atoms: _184  and  _185
REMARK   63  A    between atoms: _188  and  _190
REMARK   64  A    between atoms: _190  and  _191
REMARK   65  A    between atoms: _190  and  _193
REMARK   66  A    between atoms: _193  and  _194
REMARK   67  A    between atoms: _197  and  _199
REMARK   68  A    between atoms: _199  and  _200
REMARK   69  A    between atoms: _199  and  _202
REMARK   70  A    between atoms: _202  and  _203
REMARK   71  A    between atoms: _204  and  ZN_392
REMARK   72  A    between atoms: _208  and  _210
REMARK   73  A    between atoms: _210  and  _211
REMARK   74  A    between atoms: _210  and  _213
REMARK   75  A    between atoms: _213  and  _214
REMARK   76  A    between atoms: _217  and  _219
REMARK   77  A    between atoms: _219  and  _220
REMARK   78  A    between atoms: _219  and  _222
REMARK   79  A    between atoms: _225  and  _227
REMARK   80  A    between atoms: _227  and  _228
REMARK   81  A    between atoms: _227  and  _230
REMARK   82  A    between atoms: _230  and  _231
REMARK   83  A    between atoms: _236  and  _238
REMARK   84  A    between atoms: _238  and  _239
REMARK   85  A    between atoms: _238  and  _241
REMARK   86  A    between atoms: _241  and  _242
REMARK   87  A    between atoms: _248  and  _250
REMARK   88  A    between atoms: _250  and  _251
REMARK   89  A    between atoms: _250  and  _253
REMARK   90  A    between atoms: _256  and  _258
REMARK   91  A    between atoms: _258  and  _259
REMARK   92  A    between atoms: _258  and  _261
REMARK   93  A    between atoms: _261  and  _262
REMARK   94  A    between atoms: _265  and  _267
REMARK   95  A    between atoms: _267  and  _268
REMARK   96  A    between atoms: _267  and  _270
REMARK   97  A    between atoms: _273  and  _275
REMARK   98  A    between atoms: _275  and  _276
REMARK   99  A    between atoms: _275  and  _278
REMARK  100  A    between atoms: _278  and  _279
REMARK  101  A    between atoms: _281  and  _283
REMARK  102  A    between atoms: _283  and  _284
REMARK  103  A    between atoms: _283  and  _286
REMARK  104  A    between atoms: _286  and  _287
REMARK  105  A    between atoms: _290  and  _292
REMARK  106  A    between atoms: _292  and  _293
REMARK  107  A    between atoms: _292  and  _295
REMARK  108  A    between atoms: _295  and  _296
REMARK  109  A    between atoms: _299  and  _301
REMARK  110  A    between atoms: _301  and  _302
REMARK  111  A    between atoms: _301  and  _304
REMARK  112  A    between atoms: _304  and  _305
REMARK  113  A    between atoms: _309  and  _310
REMARK  114  A    between atoms: _316  and  _317
REMARK  115  A    between atoms: _322  and  _324
REMARK  116  A    between atoms: _324  and  _325
REMARK  117  A    between atoms: _324  and  _327
REMARK  118  A    between atoms: _327  and  _328
REMARK  119  A    between atoms: _331  and  _333
REMARK  120  A    between atoms: _333  and  _334
REMARK  121  A    between atoms: _333  and  _336
REMARK  122  A    between atoms: _336  and  _337
REMARK  123  A    between atoms: _340  and  _342
REMARK  124  A    between atoms: _342  and  _343
REMARK  125  A    between atoms: _342  and  _345
REMARK  126  A    between atoms: _348  and  _350
REMARK  127  A    between atoms: _350  and  _351
REMARK  128  A    between atoms: _350  and  _353
REMARK  129  A    between atoms: _353  and  _354
REMARK  130  A    between atoms: _364  and  _366
REMARK  131  A    between atoms: _366  and  _367
REMARK  132  A    between atoms: _366  and  _369
REMARK  133  A    between atoms: _369  and  _370
REMARK  134  A    between atoms: _375  and  _377
REMARK  135  A    between atoms: _377  and  _378
REMARK  136  A    between atoms: _377  and  _380
REMARK  137  A    between atoms: _380  and  _381
REMARK  138  A    between atoms: _381  and  _382
REMARK  139  A    between atoms: _382  and  _383
REMARK                            x       y       z     vdW  Elec       q    Type
REMARK                         _______ _______ _______ _____ _____    ______ ____
ROOT
ATOM      1  O   HOH     1      19.342   3.085  11.133  0.00  0.00    +0.000 OA
ENDROOT
TORSDOF 0
REMARK  Name = ../refined-set-2016/4q81/4q81_pocket.pdb
REMARK  139 active torsions:
REMARK  status: ('A' for Active; 'I' for Inactive)
REMARK    1  A    between atoms: _1  and  _3
REMARK    2  A    between atoms: _3  and  _4
REMARK    3  A    between atoms: _3  and  _6
REMARK    4  A    between atoms: _6  and  _7
REMARK    5  A    between atoms: _17  and  _19
REMARK    6  A    between atoms: _19  and  _20
REMARK    7  A    between atoms: _19  and  _22
REMARK    8  A    between atoms: _22  and  _23
REMARK    9  A    between atoms: _28  and  _29
REMARK   10  A    between atoms: _31  and  _33
REMARK   11  A    between atoms: _33  and  _34
REMARK   12  A    between atoms: _33  and  _36
REMARK   13  A    between atoms: _36  and  _37
REMARK   14  A    between atoms: _39  and  _41
REMARK   15  A    between atoms: _41  and  _42
REMARK   16  A    between atoms: _41  and  _44
REMARK   17  A    between atoms: _44  and  _45
REMARK   18  A    between atoms: _50  and  _52
REMARK   19  A    between atoms: _52  and  _53
REMARK   20  A    between atoms: _52  and  _55
REMARK   21  A    between atoms: _55  and  _56
REMARK   22  A    between atoms: _61  and  _63
REMARK   23  A    between atoms: _63  and  _64
REMARK   24  A    between atoms: _67  and  _69
REMARK   25  A    between atoms: _69  and  _70
REMARK   26  A    between atoms: _69  and  _72
REMARK   27  A    between atoms: _72  and  _73
REMARK   28  A    between atoms: _79  and  _81
REMARK   29  A    between atoms: _81  and  _82
REMARK   30  A    between atoms: _81  and  _84
REMARK   31  A    between atoms: _84  and  _85
REMARK   32  A    between atoms: _90  and  _92
REMARK   33  A    between atoms: _92  and  _93
REMARK   34  A    between atoms: _92  and  _95
REMARK   35  A    between atoms: _95  and  _96
REMARK   36  A    between atoms: _99  and  _101
REMARK   37  A    between atoms: _101  and  _102
REMARK   38  A    between atoms: _101  and  _104
REMARK   39  A    between atoms: _104  and  _105
REMARK   40  A    between atoms: _105  and  _106
REMARK   41  A    between atoms: _111  and  _113
REMARK   42  A    between atoms: _113  and  _114
REMARK   43  A    between atoms: _113  and  _116
REMARK   44  A    between atoms: _116  and  _117
REMARK   45  A    between atoms: _123  and  _125
REMARK   46  A    between atoms: _136  and  _139
REMARK   47  A    between atoms: _139  and  _140
REMARK   48  A    between atoms: _148  and  _149
REMARK   49  A    between atoms: _157  and  _159
REMARK   50  A    between atoms: _159  and  _160
REMARK   51  A    between atoms: _159  and  _162
REMARK   52  A    between atoms: _162  and  _163
REMARK   53  A    between atoms: _163  and  _164
REMARK   54  A    between atoms: _167  and  _169
REMARK   55  A    between atoms: _169  and  _170
REMARK   56  A    between atoms: _169  and  _172
REMARK   57  A    between atoms: _172  and  _173
REMARK   58  A    between atoms: _178  and  _180
REMARK   59  A    between atoms: _180  and  _181
REMARK   60  A    between atoms: _180  and  _183
REMARK   61  A    between atoms: _183  and  _184
REMARK   62  A    between atoms: _184  and  _185
REMARK   63  A    between atoms: _188  and  _190
REMARK   64  A    between atoms: _190  and  _191
REMARK   65  A    between atoms: _190  and  _193
REMARK   66  A    between atoms: _193  and  _194
REMARK   67  A    between atoms: _197  and  _199
REMARK   68  A    between atoms: _199  and  _200
REMARK   69  A    between atoms: _199  and  _202
REMARK   70  A    between atoms: _202  and  _203
REMARK   71  A    between atoms: _204  and  ZN_392
REMARK   72  A    between atoms: _208  and  _210
REMARK   73  A    between atoms: _210  and  _211
REMARK   74  A    between atoms: _210  and  _213
REMARK   75  A    between atoms: _213  and  _214
REMARK   76  A    between atoms: _217  and  _219
REMARK   77  A    between atoms: _219  and  _220
REMARK   78  A    between atoms: _219  and  _222
REMARK   79  A    between atoms: _225  and  _227
REMARK   80  A    between atoms: _227  and  _228
REMARK   81  A    between atoms: _227  and  _230
REMARK   82  A    between atoms: _230  and  _231
REMARK   83  A    between atoms: _236  and  _238
REMARK   84  A    between atoms: _238  and  _239
REMARK   85  A    between atoms: _238  and  _241
REMARK   86  A    between atoms: _241  and  _242
REMARK   87  A    between atoms: _248  and  _250
REMARK   88  A    between atoms: _250  and  _251
REMARK   89  A    between atoms: _250  and  _253
REMARK   90  A    between atoms: _256  and  _258
REMARK   91  A    between atoms: _258  and  _259
REMARK   92  A    between atoms: _258  and  _261
REMARK   93  A    between atoms: _261  and  _262
REMARK   94  A    between atoms: _265  and  _267
REMARK   95  A    between atoms: _267  and  _268
REMARK   96  A    between atoms: _267  and  _270
REMARK   97  A    between atoms: _273  and  _275
REMARK   98  A    between atoms: _275  and  _276
REMARK   99  A    between atoms: _275  and  _278
REMARK  100  A    between atoms: _278  and  _279
REMARK  101  A    between atoms: _281  and  _283
REMARK  102  A    between atoms: _283  and  _284
REMARK  103  A    between atoms: _283  and  _286
REMARK  104  A    between atoms: _286  and  _287
REMARK  105  A    between atoms: _290  and  _292
REMARK  106  A    between atoms: _292  and  _293
REMARK  107  A    between atoms: _292  and  _295
REMARK  108  A    between atoms: _295  and  _296
REMARK  109  A    between atoms: _299  and  _301
REMARK  110  A    between atoms: _301  and  _302
REMARK  111  A    between atoms: _301  and  _304
REMARK  112  A    between atoms: _304  and  _305
REMARK  113  A    between atoms: _309  and  _310
REMARK  114  A    between atoms: _316  and  _317
REMARK  115  A    between atoms: _322  and  _324
REMARK  116  A    between atoms: _324  and  _325
REMARK  117  A    between atoms: _324  and  _327
REMARK  118  A    between atoms: _327  and  _328
REMARK  119  A    between atoms: _331  and  _333
REMARK  120  A    between atoms: _333  and  _334
REMARK  121  A    between atoms: _333  and  _336
REMARK  122  A    between atoms: _336  and  _337
REMARK  123  A    between atoms: _340  and  _342
REMARK  124  A    between atoms: _342  and  _343
REMARK  125  A    between atoms: _342  and  _345
REMARK  126  A    between atoms: _348  and  _350
REMARK  127  A    between atoms: _350  and  _351
REMARK  128  A    between atoms: _350  and  _353
REMARK  129  A    between atoms: _353  and  _354
REMARK  130  A    between atoms: _364  and  _366
REMARK  131  A    between atoms: _366  and  _367
REMARK  132  A    between atoms: _366  and  _369
REMARK  133  A    between atoms: _369  and  _370
REMARK  134  A    between atoms: _375  and  _377
REMARK  135  A    between atoms: _377  and  _378
REMARK  136  A    between atoms: _377  and  _380
REMARK  137  A    between atoms: _380  and  _381
REMARK  138  A    between atoms: _381  and  _382
REMARK  139  A    between atoms: _382  and  _383
REMARK                            x       y       z     vdW  Elec       q    Type
REMARK                         _______ _______ _______ _____ _____    ______ ____
ROOT
ATOM      1  O   HOH     1      18.537   6.091  13.805  0.00  0.00    +0.000 OA
ENDROOT
TORSDOF 0
REMARK  Name = ../refined-set-2016/4q81/4q81_pocket.pdb
REMARK  139 active torsions:
REMARK  status: ('A' for Active; 'I' for Inactive)
REMARK    1  A    between atoms: _1  and  _3
REMARK    2  A    between atoms: _3  and  _4
REMARK    3  A    between atoms: _3  and  _6
REMARK    4  A    between atoms: _6  and  _7
REMARK    5  A    between atoms: _17  and  _19
REMARK    6  A    between atoms: _19  and  _20
REMARK    7  A    between atoms: _19  and  _22
REMARK    8  A    between atoms: _22  and  _23
REMARK    9  A    between atoms: _28  and  _29
REMARK   10  A    between atoms: _31  and  _33
REMARK   11  A    between atoms: _33  and  _34
REMARK   12  A    between atoms: _33  and  _36
REMARK   13  A    between atoms: _36  and  _37
REMARK   14  A    between atoms: _39  and  _41
REMARK   15  A    between atoms: _41  and  _42
REMARK   16  A    between atoms: _41  and  _44
REMARK   17  A    between atoms: _44  and  _45
REMARK   18  A    between atoms: _50  and  _52
REMARK   19  A    between atoms: _52  and  _53
REMARK   20  A    between atoms: _52  and  _55
REMARK   21  A    between atoms: _55  and  _56
REMARK   22  A    between atoms: _61  and  _63
REMARK   23  A    between atoms: _63  and  _64
REMARK   24  A    between atoms: _67  and  _69
REMARK   25  A    between atoms: _69  and  _70
REMARK   26  A    between atoms: _69  and  _72
REMARK   27  A    between atoms: _72  and  _73
REMARK   28  A    between atoms: _79  and  _81
REMARK   29  A    between atoms: _81  and  _82
REMARK   30  A    between atoms: _81  and  _84
REMARK   31  A    between atoms: _84  and  _85
REMARK   32  A    between atoms: _90  and  _92
REMARK   33  A    between atoms: _92  and  _93
REMARK   34  A    between atoms: _92  and  _95
REMARK   35  A    between atoms: _95  and  _96
REMARK   36  A    between atoms: _99  and  _101
REMARK   37  A    between atoms: _101  and  _102
REMARK   38  A    between atoms: _101  and  _104
REMARK   39  A    between atoms: _104  and  _105
REMARK   40  A    between atoms: _105  and  _106
REMARK   41  A    between atoms: _111  and  _113
REMARK   42  A    between atoms: _113  and  _114
REMARK   43  A    between atoms: _113  and  _116
REMARK   44  A    between atoms: _116  and  _117
REMARK   45  A    between atoms: _123  and  _125
REMARK   46  A    between atoms: _136  and  _139
REMARK   47  A    between atoms: _139  and  _140
REMARK   48  A    between atoms: _148  and  _149
REMARK   49  A    between atoms: _157  and  _159
REMARK   50  A    between atoms: _159  and  _160
REMARK   51  A    between atoms: _159  and  _162
REMARK   52  A    between atoms: _162  and  _163
REMARK   53  A    between atoms: _163  and  _164
REMARK   54  A    between atoms: _167  and  _169
REMARK   55  A    between atoms: _169  and  _170
REMARK   56  A    between atoms: _169  and  _172
REMARK   57  A    between atoms: _172  and  _173
REMARK   58  A    between atoms: _178  and  _180
REMARK   59  A    between atoms: _180  and  _181
REMARK   60  A    between atoms: _180  and  _183
REMARK   61  A    between atoms: _183  and  _184
REMARK   62  A    between atoms: _184  and  _185
REMARK   63  A    between atoms: _188  and  _190
REMARK   64  A    between atoms: _190  and  _191
REMARK   65  A    between atoms: _190  and  _193
REMARK   66  A    between atoms: _193  and  _194
REMARK   67  A    between atoms: _197  and  _199
REMARK   68  A    between atoms: _199  and  _200
REMARK   69  A    between atoms: _199  and  _202
REMARK   70  A    between atoms: _202  and  _203
REMARK   71  A    between atoms: _204  and  ZN_392
REMARK   72  A    between atoms: _208  and  _210
REMARK   73  A    between atoms: _210  and  _211
REMARK   74  A    between atoms: _210  and  _213
REMARK   75  A    between atoms: _213  and  _214
REMARK   76  A    between atoms: _217  and  _219
REMARK   77  A    between atoms: _219  and  _220
REMARK   78  A    between atoms: _219  and  _222
REMARK   79  A    between atoms: _225  and  _227
REMARK   80  A    between atoms: _227  and  _228
REMARK   81  A    between atoms: _227  and  _230
REMARK   82  A    between atoms: _230  and  _231
REMARK   83  A    between atoms: _236  and  _238
REMARK   84  A    between atoms: _238  and  _239
REMARK   85  A    between atoms: _238  and  _241
REMARK   86  A    between atoms: _241  and  _242
REMARK   87  A    between atoms: _248  and  _250
REMARK   88  A    between atoms: _250  and  _251
REMARK   89  A    between atoms: _250  and  _253
REMARK   90  A    between atoms: _256  and  _258
REMARK   91  A    between atoms: _258  and  _259
REMARK   92  A    between atoms: _258  and  _261
REMARK   93  A    between atoms: _261  and  _262
REMARK   94  A    between atoms: _265  and  _267
REMARK   95  A    between atoms: _267  and  _268
REMARK   96  A    between atoms: _267  and  _270
REMARK   97  A    between atoms: _273  and  _275
REMARK   98  A    between atoms: _275  and  _276
REMARK   99  A    between atoms: _275  and  _278
REMARK  100  A    between atoms: _278  and  _279
REMARK  101  A    between atoms: _281  and  _283
REMARK  102  A    between atoms: _283  and  _284
REMARK  103  A    between atoms: _283  and  _286
REMARK  104  A    between atoms: _286  and  _287
REMARK  105  A    between atoms: _290  and  _292
REMARK  106  A    between atoms: _292  and  _293
REMARK  107  A    between atoms: _292  and  _295
REMARK  108  A    between atoms: _295  and  _296
REMARK  109  A    between atoms: _299  and  _301
REMARK  110  A    between atoms: _301  and  _302
REMARK  111  A    between atoms: _301  and  _304
REMARK  112  A    between atoms: _304  and  _305
REMARK  113  A    between atoms: _309  and  _310
REMARK  114  A    between atoms: _316  and  _317
REMARK  115  A    between atoms: _322  and  _324
REMARK  116  A    between atoms: _324  and  _325
REMARK  117  A    between atoms: _324  and  _327
REMARK  118  A    between atoms: _327  and  _328
REMARK  119  A    between atoms: _331  and  _333
REMARK  120  A    between atoms: _333  and  _334
REMARK  121  A    between atoms: _333  and  _336
REMARK  122  A    between atoms: _336  and  _337
REMARK  123  A    between atoms: _340  and  _342
REMARK  124  A    between atoms: _342  and  _343
REMARK  125  A    between atoms: _342  and  _345
REMARK  126  A    between atoms: _348  and  _350
REMARK  127  A    between atoms: _350  and  _351
REMARK  128  A    between atoms: _350  and  _353
REMARK  129  A    between atoms: _353  and  _354
REMARK  130  A    between atoms: _364  and  _366
REMARK  131  A    between atoms: _366  and  _367
REMARK  132  A    between atoms: _366  and  _369
REMARK  133  A    between atoms: _369  and  _370
REMARK  134  A    between atoms: _375  and  _377
REMARK  135  A    between atoms: _377  and  _378
REMARK  136  A    between atoms: _377  and  _380
REMARK  137  A    between atoms: _380  and  _381
REMARK  138  A    between atoms: _381  and  _382
REMARK  139  A    between atoms: _382  and  _383
REMARK                            x       y       z     vdW  Elec       q    Type
REMARK                         _______ _______ _______ _____ _____    ______ ____
ROOT
ATOM      1  O   HOH     1      16.204   7.052  11.420  0.00  0.00    +0.000 OA
ENDROOT
TORSDOF 0
REMARK  Name = ../refined-set-2016/4q81/4q81_pocket.pdb
REMARK  139 active torsions:
REMARK  status: ('A' for Active; 'I' for Inactive)
REMARK    1  A    between atoms: _1  and  _3
REMARK    2  A    between atoms: _3  and  _4
REMARK    3  A    between atoms: _3  and  _6
REMARK    4  A    between atoms: _6  and  _7
REMARK    5  A    between atoms: _17  and  _19
REMARK    6  A    between atoms: _19  and  _20
REMARK    7  A    between atoms: _19  and  _22
REMARK    8  A    between atoms: _22  and  _23
REMARK    9  A    between atoms: _28  and  _29
REMARK   10  A    between atoms: _31  and  _33
REMARK   11  A    between atoms: _33  and  _34
REMARK   12  A    between atoms: _33  and  _36
REMARK   13  A    between atoms: _36  and  _37
REMARK   14  A    between atoms: _39  and  _41
REMARK   15  A    between atoms: _41  and  _42
REMARK   16  A    between atoms: _41  and  _44
REMARK   17  A    between atoms: _44  and  _45
REMARK   18  A    between atoms: _50  and  _52
REMARK   19  A    between atoms: _52  and  _53
REMARK   20  A    between atoms: _52  and  _55
REMARK   21  A    between atoms: _55  and  _56
REMARK   22  A    between atoms: _61  and  _63
REMARK   23  A    between atoms: _63  and  _64
REMARK   24  A    between atoms: _67  and  _69
REMARK   25  A    between atoms: _69  and  _70
REMARK   26  A    between atoms: _69  and  _72
REMARK   27  A    between atoms: _72  and  _73
REMARK   28  A    between atoms: _79  and  _81
REMARK   29  A    between atoms: _81  and  _82
REMARK   30  A    between atoms: _81  and  _84
REMARK   31  A    between atoms: _84  and  _85
REMARK   32  A    between atoms: _90  and  _92
REMARK   33  A    between atoms: _92  and  _93
REMARK   34  A    between atoms: _92  and  _95
REMARK   35  A    between atoms: _95  and  _96
REMARK   36  A    between atoms: _99  and  _101
REMARK   37  A    between atoms: _101  and  _102
REMARK   38  A    between atoms: _101  and  _104
REMARK   39  A    between atoms: _104  and  _105
REMARK   40  A    between atoms: _105  and  _106
REMARK   41  A    between atoms: _111  and  _113
REMARK   42  A    between atoms: _113  and  _114
REMARK   43  A    between atoms: _113  and  _116
REMARK   44  A    between atoms: _116  and  _117
REMARK   45  A    between atoms: _123  and  _125
REMARK   46  A    between atoms: _136  and  _139
REMARK   47  A    between atoms: _139  and  _140
REMARK   48  A    between atoms: _148  and  _149
REMARK   49  A    between atoms: _157  and  _159
REMARK   50  A    between atoms: _159  and  _160
REMARK   51  A    between atoms: _159  and  _162
REMARK   52  A    between atoms: _162  and  _163
REMARK   53  A    between atoms: _163  and  _164
REMARK   54  A    between atoms: _167  and  _169
REMARK   55  A    between atoms: _169  and  _170
REMARK   56  A    between atoms: _169  and  _172
REMARK   57  A    between atoms: _172  and  _173
REMARK   58  A    between atoms: _178  and  _180
REMARK   59  A    between atoms: _180  and  _181
REMARK   60  A    between atoms: _180  and  _183
REMARK   61  A    between atoms: _183  and  _184
REMARK   62  A    between atoms: _184  and  _185
REMARK   63  A    between atoms: _188  and  _190
REMARK   64  A    between atoms: _190  and  _191
REMARK   65  A    between atoms: _190  and  _193
REMARK   66  A    between atoms: _193  and  _194
REMARK   67  A    between atoms: _197  and  _199
REMARK   68  A    between atoms: _199  and  _200
REMARK   69  A    between atoms: _199  and  _202
REMARK   70  A    between atoms: _202  and  _203
REMARK   71  A    between atoms: _204  and  ZN_392
REMARK   72  A    between atoms: _208  and  _210
REMARK   73  A    between atoms: _210  and  _211
REMARK   74  A    between atoms: _210  and  _213
REMARK   75  A    between atoms: _213  and  _214
REMARK   76  A    between atoms: _217  and  _219
REMARK   77  A    between atoms: _219  and  _220
REMARK   78  A    between atoms: _219  and  _222
REMARK   79  A    between atoms: _225  and  _227
REMARK   80  A    between atoms: _227  and  _228
REMARK   81  A    between atoms: _227  and  _230
REMARK   82  A    between atoms: _230  and  _231
REMARK   83  A    between atoms: _236  and  _238
REMARK   84  A    between atoms: _238  and  _239
REMARK   85  A    between atoms: _238  and  _241
REMARK   86  A    between atoms: _241  and  _242
REMARK   87  A    between atoms: _248  and  _250
REMARK   88  A    between atoms: _250  and  _251
REMARK   89  A    between atoms: _250  and  _253
REMARK   90  A    between atoms: _256  and  _258
REMARK   91  A    between atoms: _258  and  _259
REMARK   92  A    between atoms: _258  and  _261
REMARK   93  A    between atoms: _261  and  _262
REMARK   94  A    between atoms: _265  and  _267
REMARK   95  A    between atoms: _267  and  _268
REMARK   96  A    between atoms: _267  and  _270
REMARK   97  A    between atoms: _273  and  _275
REMARK   98  A    between atoms: _275  and  _276
REMARK   99  A    between atoms: _275  and  _278
REMARK  100  A    between atoms: _278  and  _279
REMARK  101  A    between atoms: _281  and  _283
REMARK  102  A    between atoms: _283  and  _284
REMARK  103  A    between atoms: _283  and  _286
REMARK  104  A    between atoms: _286  and  _287
REMARK  105  A    between atoms: _290  and  _292
REMARK  106  A    between atoms: _292  and  _293
REMARK  107  A    between atoms: _292  and  _295
REMARK  108  A    between atoms: _295  and  _296
REMARK  109  A    between atoms: _299  and  _301
REMARK  110  A    between atoms: _301  and  _302
REMARK  111  A    between atoms: _301  and  _304
REMARK  112  A    between atoms: _304  and  _305
REMARK  113  A    between atoms: _309  and  _310
REMARK  114  A    between atoms: _316  and  _317
REMARK  115  A    between atoms: _322  and  _324
REMARK  116  A    between atoms: _324  and  _325
REMARK  117  A    between atoms: _324  and  _327
REMARK  118  A    between atoms: _327  and  _328
REMARK  119  A    between atoms: _331  and  _333
REMARK  120  A    between atoms: _333  and  _334
REMARK  121  A    between atoms: _333  and  _336
REMARK  122  A    between atoms: _336  and  _337
REMARK  123  A    between atoms: _340  and  _342
REMARK  124  A    between atoms: _342  and  _343
REMARK  125  A    between atoms: _342  and  _345
REMARK  126  A    between atoms: _348  and  _350
REMARK  127  A    between atoms: _350  and  _351
REMARK  128  A    between atoms: _350  and  _353
REMARK  129  A    between atoms: _353  and  _354
REMARK  130  A    between atoms: _364  and  _366
REMARK  131  A    between atoms: _366  and  _367
REMARK  132  A    between atoms: _366  and  _369
REMARK  133  A    between atoms: _369  and  _370
REMARK  134  A    between atoms: _375  and  _377
REMARK  135  A    between atoms: _377  and  _378
REMARK  136  A    between atoms: _377  and  _380
REMARK  137  A    between atoms: _380  and  _381
REMARK  138  A    between atoms: _381  and  _382
REMARK  139  A    between atoms: _382  and  _383
REMARK                            x       y       z     vdW  Elec       q    Type
REMARK                         _______ _______ _______ _____ _____    ______ ____
ROOT
ATOM      1  O   HOH     1      12.907   7.548   8.214  0.00  0.00    +0.000 OA
ENDROOT
TORSDOF 0
REMARK  Name = ../refined-set-2016/4q81/4q81_pocket.pdb
REMARK  139 active torsions:
REMARK  status: ('A' for Active; 'I' for Inactive)
REMARK    1  A    between atoms: _1  and  _3
REMARK    2  A    between atoms: _3  and  _4
REMARK    3  A    between atoms: _3  and  _6
REMARK    4  A    between atoms: _6  and  _7
REMARK    5  A    between atoms: _17  and  _19
REMARK    6  A    between atoms: _19  and  _20
REMARK    7  A    between atoms: _19  and  _22
REMARK    8  A    between atoms: _22  and  _23
REMARK    9  A    between atoms: _28  and  _29
REMARK   10  A    between atoms: _31  and  _33
REMARK   11  A    between atoms: _33  and  _34
REMARK   12  A    between atoms: _33  and  _36
REMARK   13  A    between atoms: _36  and  _37
REMARK   14  A    between atoms: _39  and  _41
REMARK   15  A    between atoms: _41  and  _42
REMARK   16  A    between atoms: _41  and  _44
REMARK   17  A    between atoms: _44  and  _45
REMARK   18  A    between atoms: _50  and  _52
REMARK   19  A    between atoms: _52  and  _53
REMARK   20  A    between atoms: _52  and  _55
REMARK   21  A    between atoms: _55  and  _56
REMARK   22  A    between atoms: _61  and  _63
REMARK   23  A    between atoms: _63  and  _64
REMARK   24  A    between atoms: _67  and  _69
REMARK   25  A    between atoms: _69  and  _70
REMARK   26  A    between atoms: _69  and  _72
REMARK   27  A    between atoms: _72  and  _73
REMARK   28  A    between atoms: _79  and  _81
REMARK   29  A    between atoms: _81  and  _82
REMARK   30  A    between atoms: _81  and  _84
REMARK   31  A    between atoms: _84  and  _85
REMARK   32  A    between atoms: _90  and  _92
REMARK   33  A    between atoms: _92  and  _93
REMARK   34  A    between atoms: _92  and  _95
REMARK   35  A    between atoms: _95  and  _96
REMARK   36  A    between atoms: _99  and  _101
REMARK   37  A    between atoms: _101  and  _102
REMARK   38  A    between atoms: _101  and  _104
REMARK   39  A    between atoms: _104  and  _105
REMARK   40  A    between atoms: _105  and  _106
REMARK   41  A    between atoms: _111  and  _113
REMARK   42  A    between atoms: _113  and  _114
REMARK   43  A    between atoms: _113  and  _116
REMARK   44  A    between atoms: _116  and  _117
REMARK   45  A    between atoms: _123  and  _125
REMARK   46  A    between atoms: _136  and  _139
REMARK   47  A    between atoms: _139  and  _140
REMARK   48  A    between atoms: _148  and  _149
REMARK   49  A    between atoms: _157  and  _159
REMARK   50  A    between atoms: _159  and  _160
REMARK   51  A    between atoms: _159  and  _162
REMARK   52  A    between atoms: _162  and  _163
REMARK   53  A    between atoms: _163  and  _164
REMARK   54  A    between atoms: _167  and  _169
REMARK   55  A    between atoms: _169  and  _170
REMARK   56  A    between atoms: _169  and  _172
REMARK   57  A    between atoms: _172  and  _173
REMARK   58  A    between atoms: _178  and  _180
REMARK   59  A    between atoms: _180  and  _181
REMARK   60  A    between atoms: _180  and  _183
REMARK   61  A    between atoms: _183  and  _184
REMARK   62  A    between atoms: _184  and  _185
REMARK   63  A    between atoms: _188  and  _190
REMARK   64  A    between atoms: _190  and  _191
REMARK   65  A    between atoms: _190  and  _193
REMARK   66  A    between atoms: _193  and  _194
REMARK   67  A    between atoms: _197  and  _199
REMARK   68  A    between atoms: _199  and  _200
REMARK   69  A    between atoms: _199  and  _202
REMARK   70  A    between atoms: _202  and  _203
REMARK   71  A    between atoms: _204  and  ZN_392
REMARK   72  A    between atoms: _208  and  _210
REMARK   73  A    between atoms: _210  and  _211
REMARK   74  A    between atoms: _210  and  _213
REMARK   75  A    between atoms: _213  and  _214
REMARK   76  A    between atoms: _217  and  _219
REMARK   77  A    between atoms: _219  and  _220
REMARK   78  A    between atoms: _219  and  _222
REMARK   79  A    between atoms: _225  and  _227
REMARK   80  A    between atoms: _227  and  _228
REMARK   81  A    between atoms: _227  and  _230
REMARK   82  A    between atoms: _230  and  _231
REMARK   83  A    between atoms: _236  and  _238
REMARK   84  A    between atoms: _238  and  _239
REMARK   85  A    between atoms: _238  and  _241
REMARK   86  A    between atoms: _241  and  _242
REMARK   87  A    between atoms: _248  and  _250
REMARK   88  A    between atoms: _250  and  _251
REMARK   89  A    between atoms: _250  and  _253
REMARK   90  A    between atoms: _256  and  _258
REMARK   91  A    between atoms: _258  and  _259
REMARK   92  A    between atoms: _258  and  _261
REMARK   93  A    between atoms: _261  and  _262
REMARK   94  A    between atoms: _265  and  _267
REMARK   95  A    between atoms: _267  and  _268
REMARK   96  A    between atoms: _267  and  _270
REMARK   97  A    between atoms: _273  and  _275
REMARK   98  A    between atoms: _275  and  _276
REMARK   99  A    between atoms: _275  and  _278
REMARK  100  A    between atoms: _278  and  _279
REMARK  101  A    between atoms: _281  and  _283
REMARK  102  A    between atoms: _283  and  _284
REMARK  103  A    between atoms: _283  and  _286
REMARK  104  A    between atoms: _286  and  _287
REMARK  105  A    between atoms: _290  and  _292
REMARK  106  A    between atoms: _292  and  _293
REMARK  107  A    between atoms: _292  and  _295
REMARK  108  A    between atoms: _295  and  _296
REMARK  109  A    between atoms: _299  and  _301
REMARK  110  A    between atoms: _301  and  _302
REMARK  111  A    between atoms: _301  and  _304
REMARK  112  A    between atoms: _304  and  _305
REMARK  113  A    between atoms: _309  and  _310
REMARK  114  A    between atoms: _316  and  _317
REMARK  115  A    between atoms: _322  and  _324
REMARK  116  A    between atoms: _324  and  _325
REMARK  117  A    between atoms: _324  and  _327
REMARK  118  A    between atoms: _327  and  _328
REMARK  119  A    between atoms: _331  and  _333
REMARK  120  A    between atoms: _333  and  _334
REMARK  121  A    between atoms: _333  and  _336
REMARK  122  A    between atoms: _336  and  _337
REMARK  123  A    between atoms: _340  and  _342
REMARK  124  A    between atoms: _342  and  _343
REMARK  125  A    between atoms: _342  and  _345
REMARK  126  A    between atoms: _348  and  _350
REMARK  127  A    between atoms: _350  and  _351
REMARK  128  A    between atoms: _350  and  _353
REMARK  129  A    between atoms: _353  and  _354
REMARK  130  A    between atoms: _364  and  _366
REMARK  131  A    between atoms: _366  and  _367
REMARK  132  A    between atoms: _366  and  _369
REMARK  133  A    between atoms: _369  and  _370
REMARK  134  A    between atoms: _375  and  _377
REMARK  135  A    between atoms: _377  and  _378
REMARK  136  A    between atoms: _377  and  _380
REMARK  137  A    between atoms: _380  and  _381
REMARK  138  A    between atoms: _381  and  _382
REMARK  139  A    between atoms: _382  and  _383
REMARK                            x       y       z     vdW  Elec       q    Type
REMARK                         _______ _______ _______ _____ _____    ______ ____
ROOT
ATOM      1  O   HOH     1      16.160   0.003   9.562  0.00  0.00    +0.000 OA
ENDROOT
TORSDOF 0
