REMARK  Name = ../refined-set-2016/3kqr/3kqr_pocket.pdb
REMARK  111 active torsions:
REMARK  status: ('A' for Active; 'I' for Inactive)
REMARK    1  A    between atoms: _1  and  _3
REMARK    2  A    between atoms: _3  and  _4
REMARK    3  A    between atoms: _7  and  _9
REMARK    4  A    between atoms: _9  and  _10
REMARK    5  A    between atoms: _9  and  _12
REMARK    6  A    between atoms: _12  and  _13
REMARK    7  A    between atoms: _18  and  _19
REMARK    8  A    between atoms: _21  and  _23
REMARK    9  A    between atoms: _23  and  _24
REMARK   10  A    between atoms: _23  and  _26
REMARK   11  A    between atoms: _26  and  _27
REMARK   12  A    between atoms: _29  and  _31
REMARK   13  A    between atoms: _31  and  _32
REMARK   14  A    between atoms: _31  and  _34
REMARK   15  A    between atoms: _34  and  _35
REMARK   16  A    between atoms: _37  and  _39
REMARK   17  A    between atoms: _39  and  _40
REMARK   18  A    between atoms: _39  and  _42
REMARK   19  A    between atoms: _42  and  _43
REMARK   20  A    between atoms: _48  and  _50
REMARK   21  A    between atoms: _50  and  _51
REMARK   22  A    between atoms: _50  and  _53
REMARK   23  A    between atoms: _53  and  _54
REMARK   24  A    between atoms: _57  and  _59
REMARK   25  A    between atoms: _59  and  _60
REMARK   26  A    between atoms: _59  and  _62
REMARK   27  A    between atoms: _62  and  _63
REMARK   28  A    between atoms: _68  and  _70
REMARK   29  A    between atoms: _70  and  _71
REMARK   30  A    between atoms: _70  and  _73
REMARK   31  A    between atoms: _73  and  _74
REMARK   32  A    between atoms: _77  and  _79
REMARK   33  A    between atoms: _79  and  _80
REMARK   34  A    between atoms: _79  and  _82
REMARK   35  A    between atoms: _85  and  _87
REMARK   36  A    between atoms: _87  and  _88
REMARK   37  A    between atoms: _87  and  _90
REMARK   38  A    between atoms: _90  and  _91
REMARK   39  A    between atoms: _96  and  _97
REMARK   40  A    between atoms: _99  and  _101
REMARK   41  A    between atoms: _101  and  _102
REMARK   42  A    between atoms: _101  and  _104
REMARK   43  A    between atoms: _104  and  _105
REMARK   44  A    between atoms: _105  and  _106
REMARK   45  A    between atoms: _106  and  _107
REMARK   46  A    between atoms: _107  and  _108
REMARK   47  A    between atoms: _112  and  _114
REMARK   48  A    between atoms: _114  and  _115
REMARK   49  A    between atoms: _114  and  _117
REMARK   50  A    between atoms: _117  and  _118
REMARK   51  A    between atoms: _118  and  _119
REMARK   52  A    between atoms: _122  and  _124
REMARK   53  A    between atoms: _124  and  _125
REMARK   54  A    between atoms: _124  and  _127
REMARK   55  A    between atoms: _127  and  _128
REMARK   56  A    between atoms: _130  and  _132
REMARK   57  A    between atoms: _132  and  _133
REMARK   58  A    between atoms: _132  and  _135
REMARK   59  A    between atoms: _135  and  _136
REMARK   60  A    between atoms: _141  and  _142
REMARK   61  A    between atoms: _144  and  _146
REMARK   62  A    between atoms: _146  and  _147
REMARK   63  A    between atoms: _146  and  _149
REMARK   64  A    between atoms: _149  and  _150
REMARK   65  A    between atoms: _150  and  _151
REMARK   66  A    between atoms: _151  and  _152
REMARK   67  A    between atoms: _161  and  _163
REMARK   68  A    between atoms: _163  and  _164
REMARK   69  A    between atoms: _163  and  _166
REMARK   70  A    between atoms: _166  and  _167
REMARK   71  A    between atoms: _167  and  _168
REMARK   72  A    between atoms: _168  and  _169
REMARK   73  A    between atoms: _169  and  _170
REMARK   74  A    between atoms: _174  and  _176
REMARK   75  A    between atoms: _181  and  _182
REMARK   76  A    between atoms: _182  and  CA_267
REMARK   77  A    between atoms: _186  and  _189
REMARK   78  A    between atoms: _189  and  _190
REMARK   79  A    between atoms: _190  and  _191
REMARK   80  A    between atoms: _198  and  _199
REMARK   81  A    between atoms: _205  and  _207
REMARK   82  A    between atoms: _207  and  _208
REMARK   83  A    between atoms: _207  and  _210
REMARK   84  A    between atoms: _210  and  _211
REMARK   85  A    between atoms: _213  and  _215
REMARK   86  A    between atoms: _215  and  _216
REMARK   87  A    between atoms: _215  and  _218
REMARK   88  A    between atoms: _218  and  _219
REMARK   89  A    between atoms: _219  and  _220
REMARK   90  A    between atoms: _220  and  _221
REMARK   91  A    between atoms: _221  and  _222
REMARK   92  A    between atoms: _226  and  _228
REMARK   93  A    between atoms: _228  and  _229
REMARK   94  A    between atoms: _228  and  _231
REMARK   95  A    between atoms: _231  and  _232
REMARK   96  A    between atoms: _238  and  _240
REMARK   97  A    between atoms: _240  and  _241
REMARK   98  A    between atoms: _240  and  _243
REMARK   99  A    between atoms: _243  and  _244
REMARK  100  A    between atoms: _247  and  _249
REMARK  101  A    between atoms: _249  and  _250
REMARK  102  A    between atoms: _249  and  _252
REMARK  103  A    between atoms: _252  and  _253
REMARK  104  A    between atoms: _255  and  _257
REMARK  105  A    between atoms: _257  and  _258
REMARK  106  A    between atoms: _257  and  _260
REMARK  107  A    between atoms: _260  and  _261
REMARK  108  A    between atoms: _261  and  _262
REMARK  109  A    between atoms: _262  and  _263
REMARK  110  A    between atoms: _262  and  _264
REMARK  111  A    between atoms: _263  and  CA_267
REMARK                            x       y       z     vdW  Elec       q    Type
REMARK                         _______ _______ _______ _____ _____    ______ ____
ROOT
ATOM      1  CA  TYR A   2      12.514  10.737  50.184  0.00  0.00    +0.153 C 
ENDROOT
BRANCH   1   3
ATOM      2  C   ALA A   1      13.381  12.089  48.389  0.00  0.00    +0.238 C 
ATOM      3  N   TYR A   2      13.510  11.039  49.189  0.00  0.00    -0.297 N 
ATOM      4  H   TYR A   2      14.344  10.424  49.096  0.00  0.00    +0.150 HD
ATOM      5  O   ALA A   1      12.374  12.826  48.405  0.00  0.00    -0.274 OA
BRANCH   2   6
ATOM      6  CA  ALA A   1      14.555  12.378  47.462  0.00  0.00    +0.145 C 
ATOM      7  CB  ALA A   1      15.580  13.258  48.178  0.00  0.00    +0.028 C 
BRANCH   6   8
ATOM      8  N   ALA A   1      14.070  13.054  46.269  0.00  0.00    -0.238 NA
ATOM      9  H   ALA A   1      14.317  14.054  46.125  0.00  0.00    +0.142 HD
ENDBRANCH   6   8
ENDBRANCH   2   6
ENDBRANCH   1   3
BRANCH   1  10
ATOM     10  C   TYR A   2      13.059   9.869  51.297  0.00  0.00    +0.241 C 
ATOM     11  N   SER A   3      12.429   9.971  52.468  0.00  0.00    -0.296 N 
ATOM     12  H   SER A   3      11.683  10.689  52.567  0.00  0.00    +0.150 HD
ATOM     13  O   TYR A   2      14.039   9.123  51.115  0.00  0.00    -0.273 OA
BRANCH  11  14
ATOM     14  CA  SER A   3      12.731   9.136  53.602  0.00  0.00    +0.166 C 
BRANCH  14  15
ATOM     15  CB  SER A   3      12.020   7.783  53.523  0.00  0.00    +0.229 C 
ATOM     16  OG  SER A   3      10.820   7.723  53.235  0.00  0.00    -0.286 OA
ENDBRANCH  14  15
BRANCH  14  17
ATOM     17  C   SER A   3      12.292   9.838  54.876  0.00  0.00    +0.165 C 
BRANCH  17  18
ATOM     18  O   SER A   3      12.524   9.024  56.002  0.00  0.00    -0.380 OA
ATOM     19  H   SER A   3      12.013   8.181  55.909  0.00  0.00    +0.211 HD
ENDBRANCH  17  18
ENDBRANCH  14  17
ENDBRANCH  11  14
ENDBRANCH   1  10
BRANCH   1  20
ATOM     20  CB  TYR A   2      11.285  10.065  49.567  0.00  0.00    +0.055 C 
BRANCH  20  21
ATOM     21  CG  TYR A   2      11.561   8.850  48.695  0.00  0.00    -0.020 A 
ATOM     22  CD2 TYR A   2      11.670   7.576  49.251  0.00  0.00    -0.001 A 
ATOM     23  CE2 TYR A   2      11.849   6.473  48.429  0.00  0.00    +0.036 A 
ATOM     24  CZ  TYR A   2      11.957   6.628  47.039  0.00  0.00    +0.134 A 
ATOM     25  CE1 TYR A   2      11.878   7.880  46.484  0.00  0.00    +0.036 A 
ATOM     26  CD1 TYR A   2      11.654   8.970  47.310  0.00  0.00    -0.001 A 
BRANCH  24  27
ATOM     27  OH  TYR A   2      12.121   5.560  46.184  0.00  0.00    -0.506 OA
ATOM     28  HH  TYR A   2      12.163   4.722  46.709  0.00  0.00    +0.292 HD
ENDBRANCH  24  27
ENDBRANCH  20  21
ENDBRANCH   1  20
TORSDOF 11
REMARK  Name = ../refined-set-2016/3kqr/3kqr_pocket.pdb
REMARK  111 active torsions:
REMARK  status: ('A' for Active; 'I' for Inactive)
REMARK    1  A    between atoms: _1  and  _3
REMARK    2  A    between atoms: _3  and  _4
REMARK    3  A    between atoms: _7  and  _9
REMARK    4  A    between atoms: _9  and  _10
REMARK    5  A    between atoms: _9  and  _12
REMARK    6  A    between atoms: _12  and  _13
REMARK    7  A    between atoms: _18  and  _19
REMARK    8  A    between atoms: _21  and  _23
REMARK    9  A    between atoms: _23  and  _24
REMARK   10  A    between atoms: _23  and  _26
REMARK   11  A    between atoms: _26  and  _27
REMARK   12  A    between atoms: _29  and  _31
REMARK   13  A    between atoms: _31  and  _32
REMARK   14  A    between atoms: _31  and  _34
REMARK   15  A    between atoms: _34  and  _35
REMARK   16  A    between atoms: _37  and  _39
REMARK   17  A    between atoms: _39  and  _40
REMARK   18  A    between atoms: _39  and  _42
REMARK   19  A    between atoms: _42  and  _43
REMARK   20  A    between atoms: _48  and  _50
REMARK   21  A    between atoms: _50  and  _51
REMARK   22  A    between atoms: _50  and  _53
REMARK   23  A    between atoms: _53  and  _54
REMARK   24  A    between atoms: _57  and  _59
REMARK   25  A    between atoms: _59  and  _60
REMARK   26  A    between atoms: _59  and  _62
REMARK   27  A    between atoms: _62  and  _63
REMARK   28  A    between atoms: _68  and  _70
REMARK   29  A    between atoms: _70  and  _71
REMARK   30  A    between atoms: _70  and  _73
REMARK   31  A    between atoms: _73  and  _74
REMARK   32  A    between atoms: _77  and  _79
REMARK   33  A    between atoms: _79  and  _80
REMARK   34  A    between atoms: _79  and  _82
REMARK   35  A    between atoms: _85  and  _87
REMARK   36  A    between atoms: _87  and  _88
REMARK   37  A    between atoms: _87  and  _90
REMARK   38  A    between atoms: _90  and  _91
REMARK   39  A    between atoms: _96  and  _97
REMARK   40  A    between atoms: _99  and  _101
REMARK   41  A    between atoms: _101  and  _102
REMARK   42  A    between atoms: _101  and  _104
REMARK   43  A    between atoms: _104  and  _105
REMARK   44  A    between atoms: _105  and  _106
REMARK   45  A    between atoms: _106  and  _107
REMARK   46  A    between atoms: _107  and  _108
REMARK   47  A    between atoms: _112  and  _114
REMARK   48  A    between atoms: _114  and  _115
REMARK   49  A    between atoms: _114  and  _117
REMARK   50  A    between atoms: _117  and  _118
REMARK   51  A    between atoms: _118  and  _119
REMARK   52  A    between atoms: _122  and  _124
REMARK   53  A    between atoms: _124  and  _125
REMARK   54  A    between atoms: _124  and  _127
REMARK   55  A    between atoms: _127  and  _128
REMARK   56  A    between atoms: _130  and  _132
REMARK   57  A    between atoms: _132  and  _133
REMARK   58  A    between atoms: _132  and  _135
REMARK   59  A    between atoms: _135  and  _136
REMARK   60  A    between atoms: _141  and  _142
REMARK   61  A    between atoms: _144  and  _146
REMARK   62  A    between atoms: _146  and  _147
REMARK   63  A    between atoms: _146  and  _149
REMARK   64  A    between atoms: _149  and  _150
REMARK   65  A    between atoms: _150  and  _151
REMARK   66  A    between atoms: _151  and  _152
REMARK   67  A    between atoms: _161  and  _163
REMARK   68  A    between atoms: _163  and  _164
REMARK   69  A    between atoms: _163  and  _166
REMARK   70  A    between atoms: _166  and  _167
REMARK   71  A    between atoms: _167  and  _168
REMARK   72  A    between atoms: _168  and  _169
REMARK   73  A    between atoms: _169  and  _170
REMARK   74  A    between atoms: _174  and  _176
REMARK   75  A    between atoms: _181  and  _182
REMARK   76  A    between atoms: _182  and  CA_267
REMARK   77  A    between atoms: _186  and  _189
REMARK   78  A    between atoms: _189  and  _190
REMARK   79  A    between atoms: _190  and  _191
REMARK   80  A    between atoms: _198  and  _199
REMARK   81  A    between atoms: _205  and  _207
REMARK   82  A    between atoms: _207  and  _208
REMARK   83  A    between atoms: _207  and  _210
REMARK   84  A    between atoms: _210  and  _211
REMARK   85  A    between atoms: _213  and  _215
REMARK   86  A    between atoms: _215  and  _216
REMARK   87  A    between atoms: _215  and  _218
REMARK   88  A    between atoms: _218  and  _219
REMARK   89  A    between atoms: _219  and  _220
REMARK   90  A    between atoms: _220  and  _221
REMARK   91  A    between atoms: _221  and  _222
REMARK   92  A    between atoms: _226  and  _228
REMARK   93  A    between atoms: _228  and  _229
REMARK   94  A    between atoms: _228  and  _231
REMARK   95  A    between atoms: _231  and  _232
REMARK   96  A    between atoms: _238  and  _240
REMARK   97  A    between atoms: _240  and  _241
REMARK   98  A    between atoms: _240  and  _243
REMARK   99  A    between atoms: _243  and  _244
REMARK  100  A    between atoms: _247  and  _249
REMARK  101  A    between atoms: _249  and  _250
REMARK  102  A    between atoms: _249  and  _252
REMARK  103  A    between atoms: _252  and  _253
REMARK  104  A    between atoms: _255  and  _257
REMARK  105  A    between atoms: _257  and  _258
REMARK  106  A    between atoms: _257  and  _260
REMARK  107  A    between atoms: _260  and  _261
REMARK  108  A    between atoms: _261  and  _262
REMARK  109  A    between atoms: _262  and  _263
REMARK  110  A    between atoms: _262  and  _264
REMARK  111  A    between atoms: _263  and  CA_267
REMARK                            x       y       z     vdW  Elec       q    Type
REMARK                         _______ _______ _______ _____ _____    ______ ____
ROOT
ATOM      1  CA  SER A   1      12.820   7.471  60.284  0.00  0.00    +0.163 C 
ENDROOT
BRANCH   1   2
ATOM      2  N   SER A   1      12.391   6.362  59.443  0.00  0.00    -0.237 NA
ATOM      3  H   SER A   1      11.420   6.007  59.557  0.00  0.00    +0.142 HD
ENDBRANCH   1   2
BRANCH   1   4
ATOM      4  C   SER A   1      12.703   7.077  61.751  0.00  0.00    +0.227 C 
ATOM      5  O   SER A   1      11.604   6.765  62.240  0.00  0.00    -0.287 OA
ENDBRANCH   1   4
BRANCH   1   6
ATOM      6  CB  SER A   1      11.928   8.663  59.935  0.00  0.00    +0.162 C 
BRANCH   6   7
ATOM      7  OG  SER A   1      12.143   9.790  60.766  0.00  0.00    -0.380 OA
ATOM      8  H   SER A   1      13.084  10.087  60.680  0.00  0.00    +0.211 HD
ENDBRANCH   6   7
ENDBRANCH   1   6
TORSDOF 4
REMARK  Name = ../refined-set-2016/3kqr/3kqr_pocket.pdb
REMARK  111 active torsions:
REMARK  status: ('A' for Active; 'I' for Inactive)
REMARK    1  A    between atoms: _1  and  _3
REMARK    2  A    between atoms: _3  and  _4
REMARK    3  A    between atoms: _7  and  _9
REMARK    4  A    between atoms: _9  and  _10
REMARK    5  A    between atoms: _9  and  _12
REMARK    6  A    between atoms: _12  and  _13
REMARK    7  A    between atoms: _18  and  _19
REMARK    8  A    between atoms: _21  and  _23
REMARK    9  A    between atoms: _23  and  _24
REMARK   10  A    between atoms: _23  and  _26
REMARK   11  A    between atoms: _26  and  _27
REMARK   12  A    between atoms: _29  and  _31
REMARK   13  A    between atoms: _31  and  _32
REMARK   14  A    between atoms: _31  and  _34
REMARK   15  A    between atoms: _34  and  _35
REMARK   16  A    between atoms: _37  and  _39
REMARK   17  A    between atoms: _39  and  _40
REMARK   18  A    between atoms: _39  and  _42
REMARK   19  A    between atoms: _42  and  _43
REMARK   20  A    between atoms: _48  and  _50
REMARK   21  A    between atoms: _50  and  _51
REMARK   22  A    between atoms: _50  and  _53
REMARK   23  A    between atoms: _53  and  _54
REMARK   24  A    between atoms: _57  and  _59
REMARK   25  A    between atoms: _59  and  _60
REMARK   26  A    between atoms: _59  and  _62
REMARK   27  A    between atoms: _62  and  _63
REMARK   28  A    between atoms: _68  and  _70
REMARK   29  A    between atoms: _70  and  _71
REMARK   30  A    between atoms: _70  and  _73
REMARK   31  A    between atoms: _73  and  _74
REMARK   32  A    between atoms: _77  and  _79
REMARK   33  A    between atoms: _79  and  _80
REMARK   34  A    between atoms: _79  and  _82
REMARK   35  A    between atoms: _85  and  _87
REMARK   36  A    between atoms: _87  and  _88
REMARK   37  A    between atoms: _87  and  _90
REMARK   38  A    between atoms: _90  and  _91
REMARK   39  A    between atoms: _96  and  _97
REMARK   40  A    between atoms: _99  and  _101
REMARK   41  A    between atoms: _101  and  _102
REMARK   42  A    between atoms: _101  and  _104
REMARK   43  A    between atoms: _104  and  _105
REMARK   44  A    between atoms: _105  and  _106
REMARK   45  A    between atoms: _106  and  _107
REMARK   46  A    between atoms: _107  and  _108
REMARK   47  A    between atoms: _112  and  _114
REMARK   48  A    between atoms: _114  and  _115
REMARK   49  A    between atoms: _114  and  _117
REMARK   50  A    between atoms: _117  and  _118
REMARK   51  A    between atoms: _118  and  _119
REMARK   52  A    between atoms: _122  and  _124
REMARK   53  A    between atoms: _124  and  _125
REMARK   54  A    between atoms: _124  and  _127
REMARK   55  A    between atoms: _127  and  _128
REMARK   56  A    between atoms: _130  and  _132
REMARK   57  A    between atoms: _132  and  _133
REMARK   58  A    between atoms: _132  and  _135
REMARK   59  A    between atoms: _135  and  _136
REMARK   60  A    between atoms: _141  and  _142
REMARK   61  A    between atoms: _144  and  _146
REMARK   62  A    between atoms: _146  and  _147
REMARK   63  A    between atoms: _146  and  _149
REMARK   64  A    between atoms: _149  and  _150
REMARK   65  A    between atoms: _150  and  _151
REMARK   66  A    between atoms: _151  and  _152
REMARK   67  A    between atoms: _161  and  _163
REMARK   68  A    between atoms: _163  and  _164
REMARK   69  A    between atoms: _163  and  _166
REMARK   70  A    between atoms: _166  and  _167
REMARK   71  A    between atoms: _167  and  _168
REMARK   72  A    between atoms: _168  and  _169
REMARK   73  A    between atoms: _169  and  _170
REMARK   74  A    between atoms: _174  and  _176
REMARK   75  A    between atoms: _181  and  _182
REMARK   76  A    between atoms: _182  and  CA_267
REMARK   77  A    between atoms: _186  and  _189
REMARK   78  A    between atoms: _189  and  _190
REMARK   79  A    between atoms: _190  and  _191
REMARK   80  A    between atoms: _198  and  _199
REMARK   81  A    between atoms: _205  and  _207
REMARK   82  A    between atoms: _207  and  _208
REMARK   83  A    between atoms: _207  and  _210
REMARK   84  A    between atoms: _210  and  _211
REMARK   85  A    between atoms: _213  and  _215
REMARK   86  A    between atoms: _215  and  _216
REMARK   87  A    between atoms: _215  and  _218
REMARK   88  A    between atoms: _218  and  _219
REMARK   89  A    between atoms: _219  and  _220
REMARK   90  A    between atoms: _220  and  _221
REMARK   91  A    between atoms: _221  and  _222
REMARK   92  A    between atoms: _226  and  _228
REMARK   93  A    between atoms: _228  and  _229
REMARK   94  A    between atoms: _228  and  _231
REMARK   95  A    between atoms: _231  and  _232
REMARK   96  A    between atoms: _238  and  _240
REMARK   97  A    between atoms: _240  and  _241
REMARK   98  A    between atoms: _240  and  _243
REMARK   99  A    between atoms: _243  and  _244
REMARK  100  A    between atoms: _247  and  _249
REMARK  101  A    between atoms: _249  and  _250
REMARK  102  A    between atoms: _249  and  _252
REMARK  103  A    between atoms: _252  and  _253
REMARK  104  A    between atoms: _255  and  _257
REMARK  105  A    between atoms: _257  and  _258
REMARK  106  A    between atoms: _257  and  _260
REMARK  107  A    between atoms: _260  and  _261
REMARK  108  A    between atoms: _261  and  _262
REMARK  109  A    between atoms: _262  and  _263
REMARK  110  A    between atoms: _262  and  _264
REMARK  111  A    between atoms: _263  and  CA_267
REMARK                            x       y       z     vdW  Elec       q    Type
REMARK                         _______ _______ _______ _____ _____    ______ ____
ROOT
ATOM      1  CB  ASN A   1      13.420  10.929  65.646  0.00  0.00    +0.110 C 
ENDROOT
BRANCH   1   2
ATOM      2  CG  ASN A   1      14.077  11.700  64.530  0.00  0.00    +0.221 C 
ATOM      3  ND2 ASN A   1      13.652  12.950  64.341  0.00  0.00    -0.329 N 
ATOM      4 HD21 ASN A   1      12.896  13.339  64.941  0.00  0.00    +0.145 HD
ATOM      5 HD22 ASN A   1      14.076  13.536  63.594  0.00  0.00    +0.145 HD
ATOM      6  OD1 ASN A   1      14.979  11.189  63.838  0.00  0.00    -0.275 OA
ENDBRANCH   1   2
BRANCH   1   7
ATOM      7  CA  ASN A   1      14.212   9.681  66.058  0.00  0.00    +0.142 C 
BRANCH   7   8
ATOM      8  N   ASN A   1      13.727   8.523  65.318  0.00  0.00    -0.239 NA
ATOM      9  H   ASN A   1      12.719   8.272  65.373  0.00  0.00    +0.142 HD
ENDBRANCH   7   8
BRANCH   7  10
ATOM     10  C   ASN A   1      14.070   9.361  67.545  0.00  0.00    +0.225 C 
ATOM     11  O   ASN A   1      13.282   8.507  67.935  0.00  0.00    -0.287 OA
ENDBRANCH   7  10
ENDBRANCH   1   7
TORSDOF 4
REMARK  Name = ../refined-set-2016/3kqr/3kqr_pocket.pdb
REMARK  111 active torsions:
REMARK  status: ('A' for Active; 'I' for Inactive)
REMARK    1  A    between atoms: _1  and  _3
REMARK    2  A    between atoms: _3  and  _4
REMARK    3  A    between atoms: _7  and  _9
REMARK    4  A    between atoms: _9  and  _10
REMARK    5  A    between atoms: _9  and  _12
REMARK    6  A    between atoms: _12  and  _13
REMARK    7  A    between atoms: _18  and  _19
REMARK    8  A    between atoms: _21  and  _23
REMARK    9  A    between atoms: _23  and  _24
REMARK   10  A    between atoms: _23  and  _26
REMARK   11  A    between atoms: _26  and  _27
REMARK   12  A    between atoms: _29  and  _31
REMARK   13  A    between atoms: _31  and  _32
REMARK   14  A    between atoms: _31  and  _34
REMARK   15  A    between atoms: _34  and  _35
REMARK   16  A    between atoms: _37  and  _39
REMARK   17  A    between atoms: _39  and  _40
REMARK   18  A    between atoms: _39  and  _42
REMARK   19  A    between atoms: _42  and  _43
REMARK   20  A    between atoms: _48  and  _50
REMARK   21  A    between atoms: _50  and  _51
REMARK   22  A    between atoms: _50  and  _53
REMARK   23  A    between atoms: _53  and  _54
REMARK   24  A    between atoms: _57  and  _59
REMARK   25  A    between atoms: _59  and  _60
REMARK   26  A    between atoms: _59  and  _62
REMARK   27  A    between atoms: _62  and  _63
REMARK   28  A    between atoms: _68  and  _70
REMARK   29  A    between atoms: _70  and  _71
REMARK   30  A    between atoms: _70  and  _73
REMARK   31  A    between atoms: _73  and  _74
REMARK   32  A    between atoms: _77  and  _79
REMARK   33  A    between atoms: _79  and  _80
REMARK   34  A    between atoms: _79  and  _82
REMARK   35  A    between atoms: _85  and  _87
REMARK   36  A    between atoms: _87  and  _88
REMARK   37  A    between atoms: _87  and  _90
REMARK   38  A    between atoms: _90  and  _91
REMARK   39  A    between atoms: _96  and  _97
REMARK   40  A    between atoms: _99  and  _101
REMARK   41  A    between atoms: _101  and  _102
REMARK   42  A    between atoms: _101  and  _104
REMARK   43  A    between atoms: _104  and  _105
REMARK   44  A    between atoms: _105  and  _106
REMARK   45  A    between atoms: _106  and  _107
REMARK   46  A    between atoms: _107  and  _108
REMARK   47  A    between atoms: _112  and  _114
REMARK   48  A    between atoms: _114  and  _115
REMARK   49  A    between atoms: _114  and  _117
REMARK   50  A    between atoms: _117  and  _118
REMARK   51  A    between atoms: _118  and  _119
REMARK   52  A    between atoms: _122  and  _124
REMARK   53  A    between atoms: _124  and  _125
REMARK   54  A    between atoms: _124  and  _127
REMARK   55  A    between atoms: _127  and  _128
REMARK   56  A    between atoms: _130  and  _132
REMARK   57  A    between atoms: _132  and  _133
REMARK   58  A    between atoms: _132  and  _135
REMARK   59  A    between atoms: _135  and  _136
REMARK   60  A    between atoms: _141  and  _142
REMARK   61  A    between atoms: _144  and  _146
REMARK   62  A    between atoms: _146  and  _147
REMARK   63  A    between atoms: _146  and  _149
REMARK   64  A    between atoms: _149  and  _150
REMARK   65  A    between atoms: _150  and  _151
REMARK   66  A    between atoms: _151  and  _152
REMARK   67  A    between atoms: _161  and  _163
REMARK   68  A    between atoms: _163  and  _164
REMARK   69  A    between atoms: _163  and  _166
REMARK   70  A    between atoms: _166  and  _167
REMARK   71  A    between atoms: _167  and  _168
REMARK   72  A    between atoms: _168  and  _169
REMARK   73  A    between atoms: _169  and  _170
REMARK   74  A    between atoms: _174  and  _176
REMARK   75  A    between atoms: _181  and  _182
REMARK   76  A    between atoms: _182  and  CA_267
REMARK   77  A    between atoms: _186  and  _189
REMARK   78  A    between atoms: _189  and  _190
REMARK   79  A    between atoms: _190  and  _191
REMARK   80  A    between atoms: _198  and  _199
REMARK   81  A    between atoms: _205  and  _207
REMARK   82  A    between atoms: _207  and  _208
REMARK   83  A    between atoms: _207  and  _210
REMARK   84  A    between atoms: _210  and  _211
REMARK   85  A    between atoms: _213  and  _215
REMARK   86  A    between atoms: _215  and  _216
REMARK   87  A    between atoms: _215  and  _218
REMARK   88  A    between atoms: _218  and  _219
REMARK   89  A    between atoms: _219  and  _220
REMARK   90  A    between atoms: _220  and  _221
REMARK   91  A    between atoms: _221  and  _222
REMARK   92  A    between atoms: _226  and  _228
REMARK   93  A    between atoms: _228  and  _229
REMARK   94  A    between atoms: _228  and  _231
REMARK   95  A    between atoms: _231  and  _232
REMARK   96  A    between atoms: _238  and  _240
REMARK   97  A    between atoms: _240  and  _241
REMARK   98  A    between atoms: _240  and  _243
REMARK   99  A    between atoms: _243  and  _244
REMARK  100  A    between atoms: _247  and  _249
REMARK  101  A    between atoms: _249  and  _250
REMARK  102  A    between atoms: _249  and  _252
REMARK  103  A    between atoms: _252  and  _253
REMARK  104  A    between atoms: _255  and  _257
REMARK  105  A    between atoms: _257  and  _258
REMARK  106  A    between atoms: _257  and  _260
REMARK  107  A    between atoms: _260  and  _261
REMARK  108  A    between atoms: _261  and  _262
REMARK  109  A    between atoms: _262  and  _263
REMARK  110  A    between atoms: _262  and  _264
REMARK  111  A    between atoms: _263  and  CA_267
REMARK                            x       y       z     vdW  Elec       q    Type
REMARK                         _______ _______ _______ _____ _____    ______ ____
ROOT
ATOM      1  C   ASP A   1      18.028  13.019  64.153  0.00  0.00    +0.239 C 
ATOM      2  O   ASP A   1      19.240  12.928  64.427  0.00  0.00    -0.274 OA
ATOM      3  N   ASN A   2      17.450  12.345  63.160  0.00  0.00    -0.298 N 
ATOM      4  H   ASN A   2      16.430  12.475  63.004  0.00  0.00    +0.150 HD
ENDROOT
BRANCH   1   5
ATOM      5  CA  ASP A   1      17.123  14.008  64.887  0.00  0.00    +0.156 C 
BRANCH   5   6
ATOM      6  N   ASP A   1      17.615  14.162  66.266  0.00  0.00    -0.238 NA
ATOM      7  H   ASP A   1      18.312  14.908  66.464  0.00  0.00    +0.142 HD
ENDBRANCH   5   6
BRANCH   5   8
ATOM      8  CB  ASP A   1      17.152  15.365  64.143  0.00  0.00    +0.140 C 
BRANCH   8   9
ATOM      9  CG  ASP A   1      16.408  15.334  62.790  0.00  0.00    +0.367 C 
ATOM     10  OD2 ASP A   1      15.426  14.583  62.690  0.00  0.00    -0.246 OA
ATOM     11  OD1 ASP A   1      16.786  16.059  61.837  0.00  0.00    -0.246 OA
ENDBRANCH   8   9
ENDBRANCH   5   8
ENDBRANCH   1   5
BRANCH   3  12
ATOM     12  CA  ASN A   2      18.175  11.431  62.277  0.00  0.00    +0.146 C 
BRANCH  12  13
ATOM     13  C   ASN A   2      18.976  10.423  63.079  0.00  0.00    +0.227 C 
ATOM     14  O   ASN A   2      20.165  10.204  62.776  0.00  0.00    -0.286 OA
ENDBRANCH  12  13
BRANCH  12  15
ATOM     15  CB  ASN A   2      19.051  12.232  61.287  0.00  0.00    +0.112 C 
BRANCH  15  16
ATOM     16  CG  ASN A   2      18.211  13.166  60.407  0.00  0.00    +0.222 C 
ATOM     17  OD1 ASN A   2      16.980  13.108  60.440  0.00  0.00    -0.275 OA
ATOM     18  ND2 ASN A   2      18.857  14.001  59.629  0.00  0.00    -0.329 N 
ATOM     19 HD21 ASN A   2      19.897  14.017  59.633  0.00  0.00    +0.145 HD
ATOM     20 HD22 ASN A   2      18.329  14.648  59.008  0.00  0.00    +0.145 HD
ENDBRANCH  15  16
ENDBRANCH  12  15
ENDBRANCH   3  12
TORSDOF 8
REMARK  Name = ../refined-set-2016/3kqr/3kqr_pocket.pdb
REMARK  111 active torsions:
REMARK  status: ('A' for Active; 'I' for Inactive)
REMARK    1  A    between atoms: _1  and  _3
REMARK    2  A    between atoms: _3  and  _4
REMARK    3  A    between atoms: _7  and  _9
REMARK    4  A    between atoms: _9  and  _10
REMARK    5  A    between atoms: _9  and  _12
REMARK    6  A    between atoms: _12  and  _13
REMARK    7  A    between atoms: _18  and  _19
REMARK    8  A    between atoms: _21  and  _23
REMARK    9  A    between atoms: _23  and  _24
REMARK   10  A    between atoms: _23  and  _26
REMARK   11  A    between atoms: _26  and  _27
REMARK   12  A    between atoms: _29  and  _31
REMARK   13  A    between atoms: _31  and  _32
REMARK   14  A    between atoms: _31  and  _34
REMARK   15  A    between atoms: _34  and  _35
REMARK   16  A    between atoms: _37  and  _39
REMARK   17  A    between atoms: _39  and  _40
REMARK   18  A    between atoms: _39  and  _42
REMARK   19  A    between atoms: _42  and  _43
REMARK   20  A    between atoms: _48  and  _50
REMARK   21  A    between atoms: _50  and  _51
REMARK   22  A    between atoms: _50  and  _53
REMARK   23  A    between atoms: _53  and  _54
REMARK   24  A    between atoms: _57  and  _59
REMARK   25  A    between atoms: _59  and  _60
REMARK   26  A    between atoms: _59  and  _62
REMARK   27  A    between atoms: _62  and  _63
REMARK   28  A    between atoms: _68  and  _70
REMARK   29  A    between atoms: _70  and  _71
REMARK   30  A    between atoms: _70  and  _73
REMARK   31  A    between atoms: _73  and  _74
REMARK   32  A    between atoms: _77  and  _79
REMARK   33  A    between atoms: _79  and  _80
REMARK   34  A    between atoms: _79  and  _82
REMARK   35  A    between atoms: _85  and  _87
REMARK   36  A    between atoms: _87  and  _88
REMARK   37  A    between atoms: _87  and  _90
REMARK   38  A    between atoms: _90  and  _91
REMARK   39  A    between atoms: _96  and  _97
REMARK   40  A    between atoms: _99  and  _101
REMARK   41  A    between atoms: _101  and  _102
REMARK   42  A    between atoms: _101  and  _104
REMARK   43  A    between atoms: _104  and  _105
REMARK   44  A    between atoms: _105  and  _106
REMARK   45  A    between atoms: _106  and  _107
REMARK   46  A    between atoms: _107  and  _108
REMARK   47  A    between atoms: _112  and  _114
REMARK   48  A    between atoms: _114  and  _115
REMARK   49  A    between atoms: _114  and  _117
REMARK   50  A    between atoms: _117  and  _118
REMARK   51  A    between atoms: _118  and  _119
REMARK   52  A    between atoms: _122  and  _124
REMARK   53  A    between atoms: _124  and  _125
REMARK   54  A    between atoms: _124  and  _127
REMARK   55  A    between atoms: _127  and  _128
REMARK   56  A    between atoms: _130  and  _132
REMARK   57  A    between atoms: _132  and  _133
REMARK   58  A    between atoms: _132  and  _135
REMARK   59  A    between atoms: _135  and  _136
REMARK   60  A    between atoms: _141  and  _142
REMARK   61  A    between atoms: _144  and  _146
REMARK   62  A    between atoms: _146  and  _147
REMARK   63  A    between atoms: _146  and  _149
REMARK   64  A    between atoms: _149  and  _150
REMARK   65  A    between atoms: _150  and  _151
REMARK   66  A    between atoms: _151  and  _152
REMARK   67  A    between atoms: _161  and  _163
REMARK   68  A    between atoms: _163  and  _164
REMARK   69  A    between atoms: _163  and  _166
REMARK   70  A    between atoms: _166  and  _167
REMARK   71  A    between atoms: _167  and  _168
REMARK   72  A    between atoms: _168  and  _169
REMARK   73  A    between atoms: _169  and  _170
REMARK   74  A    between atoms: _174  and  _176
REMARK   75  A    between atoms: _181  and  _182
REMARK   76  A    between atoms: _182  and  CA_267
REMARK   77  A    between atoms: _186  and  _189
REMARK   78  A    between atoms: _189  and  _190
REMARK   79  A    between atoms: _190  and  _191
REMARK   80  A    between atoms: _198  and  _199
REMARK   81  A    between atoms: _205  and  _207
REMARK   82  A    between atoms: _207  and  _208
REMARK   83  A    between atoms: _207  and  _210
REMARK   84  A    between atoms: _210  and  _211
REMARK   85  A    between atoms: _213  and  _215
REMARK   86  A    between atoms: _215  and  _216
REMARK   87  A    between atoms: _215  and  _218
REMARK   88  A    between atoms: _218  and  _219
REMARK   89  A    between atoms: _219  and  _220
REMARK   90  A    between atoms: _220  and  _221
REMARK   91  A    between atoms: _221  and  _222
REMARK   92  A    between atoms: _226  and  _228
REMARK   93  A    between atoms: _228  and  _229
REMARK   94  A    between atoms: _228  and  _231
REMARK   95  A    between atoms: _231  and  _232
REMARK   96  A    between atoms: _238  and  _240
REMARK   97  A    between atoms: _240  and  _241
REMARK   98  A    between atoms: _240  and  _243
REMARK   99  A    between atoms: _243  and  _244
REMARK  100  A    between atoms: _247  and  _249
REMARK  101  A    between atoms: _249  and  _250
REMARK  102  A    between atoms: _249  and  _252
REMARK  103  A    between atoms: _252  and  _253
REMARK  104  A    between atoms: _255  and  _257
REMARK  105  A    between atoms: _257  and  _258
REMARK  106  A    between atoms: _257  and  _260
REMARK  107  A    between atoms: _260  and  _261
REMARK  108  A    between atoms: _261  and  _262
REMARK  109  A    between atoms: _262  and  _263
REMARK  110  A    between atoms: _262  and  _264
REMARK  111  A    between atoms: _263  and  CA_267
REMARK                            x       y       z     vdW  Elec       q    Type
REMARK                         _______ _______ _______ _____ _____    ______ ____
ROOT
ATOM      1  CA  TYR A   3      17.001   7.856  52.987  0.00  0.00    +0.153 C 
ENDROOT
BRANCH   1   2
ATOM      2  C   TYR A   3      17.432   7.593  51.564  0.00  0.00    +0.241 C 
ATOM      3  O   TYR A   3      18.533   7.136  51.318  0.00  0.00    -0.273 OA
ATOM      4  N   LYS A   4      16.554   7.867  50.619  0.00  0.00    -0.297 N 
ATOM      5  H   LYS A   4      15.615   8.220  50.895  0.00  0.00    +0.150 HD
BRANCH   4   6
ATOM      6  CA  LYS A   4      16.848   7.695  49.206  0.00  0.00    +0.149 C 
BRANCH   6   7
ATOM      7  C   LYS A   4      17.088   9.042  48.583  0.00  0.00    +0.241 C 
ATOM      8  O   LYS A   4      16.161   9.799  48.380  0.00  0.00    -0.273 OA
ATOM      9  N   GLU A   5      18.362   9.292  48.251  0.00  0.00    -0.298 N 
ATOM     10  H   GLU A   5      19.063   8.533  48.369  0.00  0.00    +0.150 HD
BRANCH   9  11
ATOM     11  CA  GLU A   5      18.812  10.581  47.731  0.00  0.00    +0.137 C 
BRANCH  11  12
ATOM     12  C   GLU A   5      18.297  10.854  46.301  0.00  0.00    +0.227 C 
ATOM     13  O   GLU A   5      17.807  11.938  45.937  0.00  0.00    -0.286 OA
ENDBRANCH  11  12
BRANCH  11  14
ATOM     14  CB  GLU A   5      20.350  10.540  47.680  0.00  0.00    +0.039 C 
BRANCH  14  15
ATOM     15  CG  GLU A   5      21.060  10.151  48.988  0.00  0.00    +0.116 C 
BRANCH  15  16
ATOM     16  CD  GLU A   5      20.970  11.257  50.049  0.00  0.00    +0.365 C 
ATOM     17  OE2 GLU A   5      21.420  11.044  51.217  0.00  0.00    -0.246 OA
ATOM     18  OE1 GLU A   5      20.450  12.351  49.704  0.00  0.00    -0.246 OA
ENDBRANCH  15  16
ENDBRANCH  14  15
ENDBRANCH  11  14
ENDBRANCH   9  11
ENDBRANCH   6   7
BRANCH   6  19
ATOM     19  CB  LYS A   4      15.718   6.931  48.504  0.00  0.00    +0.029 C 
BRANCH  19  20
ATOM     20  CG  LYS A   4      16.158   6.571  47.112  0.00  0.00    +0.000 C 
BRANCH  20  21
ATOM     21  CD  LYS A   4      15.442   5.433  46.453  0.00  0.00    -0.024 C 
BRANCH  21  22
ATOM     22  CE  LYS A   4      16.188   5.035  45.166  0.00  0.00    -0.086 C 
BRANCH  22  23
ATOM     23  NZ  LYS A   4      15.272   4.585  44.186  0.00  0.00    +0.380 N 
ATOM     24  HZ1 LYS A   4      14.756   3.758  44.549  0.00  0.00    -0.089 HD
ATOM     25  HZ2 LYS A   4      14.599   5.347  43.967  0.00  0.00    -0.089 HD
ATOM     26  HZ3 LYS A   4      15.790   4.320  43.324  0.00  0.00    -0.089 HD
ENDBRANCH  22  23
ENDBRANCH  21  22
ENDBRANCH  20  21
ENDBRANCH  19  20
ENDBRANCH   6  19
ENDBRANCH   4   6
ENDBRANCH   1   2
BRANCH   1  29
ATOM     27  C   VAL A   2      16.611   6.244  54.766  0.00  0.00    +0.241 C 
ATOM     28  O   VAL A   2      15.395   6.499  54.823  0.00  0.00    -0.273 OA
ATOM     29  N   TYR A   3      17.415   6.761  53.849  0.00  0.00    -0.297 N 
ATOM     30  H   TYR A   3      18.373   6.371  53.742  0.00  0.00    +0.150 HD
BRANCH  27  31
ATOM     31  CA  VAL A   2      17.266   5.324  55.779  0.00  0.00    +0.148 C 
BRANCH  31  34
ATOM     32  C   LEU A   1      17.921   6.496  57.816  0.00  0.00    +0.238 C 
ATOM     33  O   LEU A   1      19.116   6.544  57.494  0.00  0.00    -0.274 OA
ATOM     34  N   VAL A   2      17.003   5.872  57.090  0.00  0.00    -0.297 N 
ATOM     35  H   VAL A   2      16.046   5.772  57.484  0.00  0.00    +0.150 HD
BRANCH  32  36
ATOM     36  CA  LEU A   1      17.454   7.187  59.092  0.00  0.00    +0.145 C 
BRANCH  36  37
ATOM     37  N   LEU A   1      18.282   6.777  60.210  0.00  0.00    -0.238 NA
ATOM     38  H   LEU A   1      19.305   6.650  60.069  0.00  0.00    +0.142 HD
ENDBRANCH  36  37
BRANCH  36  39
ATOM     39  CB  LEU A   1      17.526   8.718  58.900  0.00  0.00    +0.026 C 
BRANCH  39  40
ATOM     40  CG  LEU A   1      16.895   9.320  57.649  0.00  0.00    +0.002 C 
ATOM     41  CD2 LEU A   1      15.386   9.132  57.585  0.00  0.00    +0.000 C 
ATOM     42  CD1 LEU A   1      17.200  10.807  57.520  0.00  0.00    +0.000 C 
ENDBRANCH  39  40
ENDBRANCH  36  39
ENDBRANCH  32  36
ENDBRANCH  31  34
BRANCH  31  43
ATOM     43  CB  VAL A   2      16.728   3.887  55.631  0.00  0.00    +0.027 C 
ATOM     44  CG2 VAL A   2      17.303   3.016  56.699  0.00  0.00    +0.002 C 
ATOM     45  CG1 VAL A   2      17.076   3.354  54.273  0.00  0.00    +0.002 C 
ENDBRANCH  31  43
ENDBRANCH  27  31
ENDBRANCH   1  29
BRANCH   1  46
ATOM     46  CB  TYR A   3      17.679   9.157  53.476  0.00  0.00    +0.055 C 
BRANCH  46  47
ATOM     47  CG  TYR A   3      17.093  10.453  52.934  0.00  0.00    -0.020 A 
ATOM     48  CD2 TYR A   3      15.894  10.945  53.437  0.00  0.00    -0.001 A 
ATOM     49  CE2 TYR A   3      15.346  12.112  52.980  0.00  0.00    +0.036 A 
ATOM     50  CZ  TYR A   3      15.997  12.823  52.016  0.00  0.00    +0.134 A 
ATOM     51  CE1 TYR A   3      17.192  12.387  51.494  0.00  0.00    +0.036 A 
ATOM     52  CD1 TYR A   3      17.734  11.181  51.946  0.00  0.00    -0.001 A 
BRANCH  50  53
ATOM     53  OH  TYR A   3      15.410  14.010  51.581  0.00  0.00    -0.506 OA
ATOM     54  HH  TYR A   3      16.026  14.765  51.756  0.00  0.00    +0.292 HD
ENDBRANCH  50  53
ENDBRANCH  46  47
ENDBRANCH   1  46
TORSDOF 24
REMARK  Name = ../refined-set-2016/3kqr/3kqr_pocket.pdb
REMARK  111 active torsions:
REMARK  status: ('A' for Active; 'I' for Inactive)
REMARK    1  A    between atoms: _1  and  _3
REMARK    2  A    between atoms: _3  and  _4
REMARK    3  A    between atoms: _7  and  _9
REMARK    4  A    between atoms: _9  and  _10
REMARK    5  A    between atoms: _9  and  _12
REMARK    6  A    between atoms: _12  and  _13
REMARK    7  A    between atoms: _18  and  _19
REMARK    8  A    between atoms: _21  and  _23
REMARK    9  A    between atoms: _23  and  _24
REMARK   10  A    between atoms: _23  and  _26
REMARK   11  A    between atoms: _26  and  _27
REMARK   12  A    between atoms: _29  and  _31
REMARK   13  A    between atoms: _31  and  _32
REMARK   14  A    between atoms: _31  and  _34
REMARK   15  A    between atoms: _34  and  _35
REMARK   16  A    between atoms: _37  and  _39
REMARK   17  A    between atoms: _39  and  _40
REMARK   18  A    between atoms: _39  and  _42
REMARK   19  A    between atoms: _42  and  _43
REMARK   20  A    between atoms: _48  and  _50
REMARK   21  A    between atoms: _50  and  _51
REMARK   22  A    between atoms: _50  and  _53
REMARK   23  A    between atoms: _53  and  _54
REMARK   24  A    between atoms: _57  and  _59
REMARK   25  A    between atoms: _59  and  _60
REMARK   26  A    between atoms: _59  and  _62
REMARK   27  A    between atoms: _62  and  _63
REMARK   28  A    between atoms: _68  and  _70
REMARK   29  A    between atoms: _70  and  _71
REMARK   30  A    between atoms: _70  and  _73
REMARK   31  A    between atoms: _73  and  _74
REMARK   32  A    between atoms: _77  and  _79
REMARK   33  A    between atoms: _79  and  _80
REMARK   34  A    between atoms: _79  and  _82
REMARK   35  A    between atoms: _85  and  _87
REMARK   36  A    between atoms: _87  and  _88
REMARK   37  A    between atoms: _87  and  _90
REMARK   38  A    between atoms: _90  and  _91
REMARK   39  A    between atoms: _96  and  _97
REMARK   40  A    between atoms: _99  and  _101
REMARK   41  A    between atoms: _101  and  _102
REMARK   42  A    between atoms: _101  and  _104
REMARK   43  A    between atoms: _104  and  _105
REMARK   44  A    between atoms: _105  and  _106
REMARK   45  A    between atoms: _106  and  _107
REMARK   46  A    between atoms: _107  and  _108
REMARK   47  A    between atoms: _112  and  _114
REMARK   48  A    between atoms: _114  and  _115
REMARK   49  A    between atoms: _114  and  _117
REMARK   50  A    between atoms: _117  and  _118
REMARK   51  A    between atoms: _118  and  _119
REMARK   52  A    between atoms: _122  and  _124
REMARK   53  A    between atoms: _124  and  _125
REMARK   54  A    between atoms: _124  and  _127
REMARK   55  A    between atoms: _127  and  _128
REMARK   56  A    between atoms: _130  and  _132
REMARK   57  A    between atoms: _132  and  _133
REMARK   58  A    between atoms: _132  and  _135
REMARK   59  A    between atoms: _135  and  _136
REMARK   60  A    between atoms: _141  and  _142
REMARK   61  A    between atoms: _144  and  _146
REMARK   62  A    between atoms: _146  and  _147
REMARK   63  A    between atoms: _146  and  _149
REMARK   64  A    between atoms: _149  and  _150
REMARK   65  A    between atoms: _150  and  _151
REMARK   66  A    between atoms: _151  and  _152
REMARK   67  A    between atoms: _161  and  _163
REMARK   68  A    between atoms: _163  and  _164
REMARK   69  A    between atoms: _163  and  _166
REMARK   70  A    between atoms: _166  and  _167
REMARK   71  A    between atoms: _167  and  _168
REMARK   72  A    between atoms: _168  and  _169
REMARK   73  A    between atoms: _169  and  _170
REMARK   74  A    between atoms: _174  and  _176
REMARK   75  A    between atoms: _181  and  _182
REMARK   76  A    between atoms: _182  and  CA_267
REMARK   77  A    between atoms: _186  and  _189
REMARK   78  A    between atoms: _189  and  _190
REMARK   79  A    between atoms: _190  and  _191
REMARK   80  A    between atoms: _198  and  _199
REMARK   81  A    between atoms: _205  and  _207
REMARK   82  A    between atoms: _207  and  _208
REMARK   83  A    between atoms: _207  and  _210
REMARK   84  A    between atoms: _210  and  _211
REMARK   85  A    between atoms: _213  and  _215
REMARK   86  A    between atoms: _215  and  _216
REMARK   87  A    between atoms: _215  and  _218
REMARK   88  A    between atoms: _218  and  _219
REMARK   89  A    between atoms: _219  and  _220
REMARK   90  A    between atoms: _220  and  _221
REMARK   91  A    between atoms: _221  and  _222
REMARK   92  A    between atoms: _226  and  _228
REMARK   93  A    between atoms: _228  and  _229
REMARK   94  A    between atoms: _228  and  _231
REMARK   95  A    between atoms: _231  and  _232
REMARK   96  A    between atoms: _238  and  _240
REMARK   97  A    between atoms: _240  and  _241
REMARK   98  A    between atoms: _240  and  _243
REMARK   99  A    between atoms: _243  and  _244
REMARK  100  A    between atoms: _247  and  _249
REMARK  101  A    between atoms: _249  and  _250
REMARK  102  A    between atoms: _249  and  _252
REMARK  103  A    between atoms: _252  and  _253
REMARK  104  A    between atoms: _255  and  _257
REMARK  105  A    between atoms: _257  and  _258
REMARK  106  A    between atoms: _257  and  _260
REMARK  107  A    between atoms: _260  and  _261
REMARK  108  A    between atoms: _261  and  _262
REMARK  109  A    between atoms: _262  and  _263
REMARK  110  A    between atoms: _262  and  _264
REMARK  111  A    between atoms: _263  and  CA_267
REMARK                            x       y       z     vdW  Elec       q    Type
REMARK                         _______ _______ _______ _____ _____    ______ ____
ROOT
ATOM      1  CA  SER A   1      21.910   6.516  52.573  0.00  0.00    +0.163 C 
ENDROOT
BRANCH   1   2
ATOM      2  N   SER A   1      21.175   5.997  51.427  0.00  0.00    -0.237 NA
ATOM      3  H   SER A   1      20.157   6.191  51.346  0.00  0.00    +0.142 HD
ENDBRANCH   1   2
BRANCH   1   4
ATOM      4  C   SER A   1      21.396   6.003  53.892  0.00  0.00    +0.227 C 
ATOM      5  O   SER A   1      20.197   5.799  54.077  0.00  0.00    -0.287 OA
ENDBRANCH   1   4
BRANCH   1   6
ATOM      6  CB  SER A   1      21.829   8.037  52.612  0.00  0.00    +0.162 C 
BRANCH   6   7
ATOM      7  OG  SER A   1      22.411   8.602  51.434  0.00  0.00    -0.380 OA
ATOM      8  H   SER A   1      22.349   9.589  51.478  0.00  0.00    +0.211 HD
ENDBRANCH   6   7
ENDBRANCH   1   6
TORSDOF 4
REMARK  Name = ../refined-set-2016/3kqr/3kqr_pocket.pdb
REMARK  111 active torsions:
REMARK  status: ('A' for Active; 'I' for Inactive)
REMARK    1  A    between atoms: _1  and  _3
REMARK    2  A    between atoms: _3  and  _4
REMARK    3  A    between atoms: _7  and  _9
REMARK    4  A    between atoms: _9  and  _10
REMARK    5  A    between atoms: _9  and  _12
REMARK    6  A    between atoms: _12  and  _13
REMARK    7  A    between atoms: _18  and  _19
REMARK    8  A    between atoms: _21  and  _23
REMARK    9  A    between atoms: _23  and  _24
REMARK   10  A    between atoms: _23  and  _26
REMARK   11  A    between atoms: _26  and  _27
REMARK   12  A    between atoms: _29  and  _31
REMARK   13  A    between atoms: _31  and  _32
REMARK   14  A    between atoms: _31  and  _34
REMARK   15  A    between atoms: _34  and  _35
REMARK   16  A    between atoms: _37  and  _39
REMARK   17  A    between atoms: _39  and  _40
REMARK   18  A    between atoms: _39  and  _42
REMARK   19  A    between atoms: _42  and  _43
REMARK   20  A    between atoms: _48  and  _50
REMARK   21  A    between atoms: _50  and  _51
REMARK   22  A    between atoms: _50  and  _53
REMARK   23  A    between atoms: _53  and  _54
REMARK   24  A    between atoms: _57  and  _59
REMARK   25  A    between atoms: _59  and  _60
REMARK   26  A    between atoms: _59  and  _62
REMARK   27  A    between atoms: _62  and  _63
REMARK   28  A    between atoms: _68  and  _70
REMARK   29  A    between atoms: _70  and  _71
REMARK   30  A    between atoms: _70  and  _73
REMARK   31  A    between atoms: _73  and  _74
REMARK   32  A    between atoms: _77  and  _79
REMARK   33  A    between atoms: _79  and  _80
REMARK   34  A    between atoms: _79  and  _82
REMARK   35  A    between atoms: _85  and  _87
REMARK   36  A    between atoms: _87  and  _88
REMARK   37  A    between atoms: _87  and  _90
REMARK   38  A    between atoms: _90  and  _91
REMARK   39  A    between atoms: _96  and  _97
REMARK   40  A    between atoms: _99  and  _101
REMARK   41  A    between atoms: _101  and  _102
REMARK   42  A    between atoms: _101  and  _104
REMARK   43  A    between atoms: _104  and  _105
REMARK   44  A    between atoms: _105  and  _106
REMARK   45  A    between atoms: _106  and  _107
REMARK   46  A    between atoms: _107  and  _108
REMARK   47  A    between atoms: _112  and  _114
REMARK   48  A    between atoms: _114  and  _115
REMARK   49  A    between atoms: _114  and  _117
REMARK   50  A    between atoms: _117  and  _118
REMARK   51  A    between atoms: _118  and  _119
REMARK   52  A    between atoms: _122  and  _124
REMARK   53  A    between atoms: _124  and  _125
REMARK   54  A    between atoms: _124  and  _127
REMARK   55  A    between atoms: _127  and  _128
REMARK   56  A    between atoms: _130  and  _132
REMARK   57  A    between atoms: _132  and  _133
REMARK   58  A    between atoms: _132  and  _135
REMARK   59  A    between atoms: _135  and  _136
REMARK   60  A    between atoms: _141  and  _142
REMARK   61  A    between atoms: _144  and  _146
REMARK   62  A    between atoms: _146  and  _147
REMARK   63  A    between atoms: _146  and  _149
REMARK   64  A    between atoms: _149  and  _150
REMARK   65  A    between atoms: _150  and  _151
REMARK   66  A    between atoms: _151  and  _152
REMARK   67  A    between atoms: _161  and  _163
REMARK   68  A    between atoms: _163  and  _164
REMARK   69  A    between atoms: _163  and  _166
REMARK   70  A    between atoms: _166  and  _167
REMARK   71  A    between atoms: _167  and  _168
REMARK   72  A    between atoms: _168  and  _169
REMARK   73  A    between atoms: _169  and  _170
REMARK   74  A    between atoms: _174  and  _176
REMARK   75  A    between atoms: _181  and  _182
REMARK   76  A    between atoms: _182  and  CA_267
REMARK   77  A    between atoms: _186  and  _189
REMARK   78  A    between atoms: _189  and  _190
REMARK   79  A    between atoms: _190  and  _191
REMARK   80  A    between atoms: _198  and  _199
REMARK   81  A    between atoms: _205  and  _207
REMARK   82  A    between atoms: _207  and  _208
REMARK   83  A    between atoms: _207  and  _210
REMARK   84  A    between atoms: _210  and  _211
REMARK   85  A    between atoms: _213  and  _215
REMARK   86  A    between atoms: _215  and  _216
REMARK   87  A    between atoms: _215  and  _218
REMARK   88  A    between atoms: _218  and  _219
REMARK   89  A    between atoms: _219  and  _220
REMARK   90  A    between atoms: _220  and  _221
REMARK   91  A    between atoms: _221  and  _222
REMARK   92  A    between atoms: _226  and  _228
REMARK   93  A    between atoms: _228  and  _229
REMARK   94  A    between atoms: _228  and  _231
REMARK   95  A    between atoms: _231  and  _232
REMARK   96  A    between atoms: _238  and  _240
REMARK   97  A    between atoms: _240  and  _241
REMARK   98  A    between atoms: _240  and  _243
REMARK   99  A    between atoms: _243  and  _244
REMARK  100  A    between atoms: _247  and  _249
REMARK  101  A    between atoms: _249  and  _250
REMARK  102  A    between atoms: _249  and  _252
REMARK  103  A    between atoms: _252  and  _253
REMARK  104  A    between atoms: _255  and  _257
REMARK  105  A    between atoms: _257  and  _258
REMARK  106  A    between atoms: _257  and  _260
REMARK  107  A    between atoms: _260  and  _261
REMARK  108  A    between atoms: _261  and  _262
REMARK  109  A    between atoms: _262  and  _263
REMARK  110  A    between atoms: _262  and  _264
REMARK  111  A    between atoms: _263  and  CA_267
REMARK                            x       y       z     vdW  Elec       q    Type
REMARK                         _______ _______ _______ _____ _____    ______ ____
ROOT
ATOM      1  CG  TYR A   1      21.373  10.219  57.941  0.00  0.00    -0.020 A 
ATOM      2  CD2 TYR A   1      21.917  11.492  58.084  0.00  0.00    -0.001 A 
ATOM      3  CE2 TYR A   1      21.905  12.392  57.043  0.00  0.00    +0.036 A 
ATOM      4  CZ  TYR A   1      21.330  12.049  55.852  0.00  0.00    +0.134 A 
ATOM      5  CE1 TYR A   1      20.769  10.800  55.687  0.00  0.00    +0.036 A 
ATOM      6  CD1 TYR A   1      20.786   9.899  56.751  0.00  0.00    -0.001 A 
ENDROOT
BRANCH   4   7
ATOM      7  OH  TYR A   1      21.303  12.957  54.812  0.00  0.00    -0.506 OA
ATOM      8  HH  TYR A   1      20.853  12.548  54.030  0.00  0.00    +0.292 HD
ENDBRANCH   4   7
BRANCH   1   9
ATOM      9  CB  TYR A   1      21.369   9.267  59.096  0.00  0.00    +0.051 C 
BRANCH   9  10
ATOM     10  CA  TYR A   1      22.272   8.049  58.968  0.00  0.00    +0.137 C 
BRANCH  10  11
ATOM     11  N   TYR A   1      21.792   7.173  57.924  0.00  0.00    -0.239 NA
ATOM     12  H   TYR A   1      20.771   6.990  57.847  0.00  0.00    +0.142 HD
ENDBRANCH  10  11
BRANCH  10  13
ATOM     13  C   TYR A   1      22.246   7.328  60.288  0.00  0.00    +0.224 C 
ATOM     14  O   TYR A   1      21.278   6.628  60.615  0.00  0.00    -0.287 OA
ENDBRANCH  10  13
ENDBRANCH   9  10
ENDBRANCH   1   9
TORSDOF 5
REMARK  Name = ../refined-set-2016/3kqr/3kqr_pocket.pdb
REMARK  111 active torsions:
REMARK  status: ('A' for Active; 'I' for Inactive)
REMARK    1  A    between atoms: _1  and  _3
REMARK    2  A    between atoms: _3  and  _4
REMARK    3  A    between atoms: _7  and  _9
REMARK    4  A    between atoms: _9  and  _10
REMARK    5  A    between atoms: _9  and  _12
REMARK    6  A    between atoms: _12  and  _13
REMARK    7  A    between atoms: _18  and  _19
REMARK    8  A    between atoms: _21  and  _23
REMARK    9  A    between atoms: _23  and  _24
REMARK   10  A    between atoms: _23  and  _26
REMARK   11  A    between atoms: _26  and  _27
REMARK   12  A    between atoms: _29  and  _31
REMARK   13  A    between atoms: _31  and  _32
REMARK   14  A    between atoms: _31  and  _34
REMARK   15  A    between atoms: _34  and  _35
REMARK   16  A    between atoms: _37  and  _39
REMARK   17  A    between atoms: _39  and  _40
REMARK   18  A    between atoms: _39  and  _42
REMARK   19  A    between atoms: _42  and  _43
REMARK   20  A    between atoms: _48  and  _50
REMARK   21  A    between atoms: _50  and  _51
REMARK   22  A    between atoms: _50  and  _53
REMARK   23  A    between atoms: _53  and  _54
REMARK   24  A    between atoms: _57  and  _59
REMARK   25  A    between atoms: _59  and  _60
REMARK   26  A    between atoms: _59  and  _62
REMARK   27  A    between atoms: _62  and  _63
REMARK   28  A    between atoms: _68  and  _70
REMARK   29  A    between atoms: _70  and  _71
REMARK   30  A    between atoms: _70  and  _73
REMARK   31  A    between atoms: _73  and  _74
REMARK   32  A    between atoms: _77  and  _79
REMARK   33  A    between atoms: _79  and  _80
REMARK   34  A    between atoms: _79  and  _82
REMARK   35  A    between atoms: _85  and  _87
REMARK   36  A    between atoms: _87  and  _88
REMARK   37  A    between atoms: _87  and  _90
REMARK   38  A    between atoms: _90  and  _91
REMARK   39  A    between atoms: _96  and  _97
REMARK   40  A    between atoms: _99  and  _101
REMARK   41  A    between atoms: _101  and  _102
REMARK   42  A    between atoms: _101  and  _104
REMARK   43  A    between atoms: _104  and  _105
REMARK   44  A    between atoms: _105  and  _106
REMARK   45  A    between atoms: _106  and  _107
REMARK   46  A    between atoms: _107  and  _108
REMARK   47  A    between atoms: _112  and  _114
REMARK   48  A    between atoms: _114  and  _115
REMARK   49  A    between atoms: _114  and  _117
REMARK   50  A    between atoms: _117  and  _118
REMARK   51  A    between atoms: _118  and  _119
REMARK   52  A    between atoms: _122  and  _124
REMARK   53  A    between atoms: _124  and  _125
REMARK   54  A    between atoms: _124  and  _127
REMARK   55  A    between atoms: _127  and  _128
REMARK   56  A    between atoms: _130  and  _132
REMARK   57  A    between atoms: _132  and  _133
REMARK   58  A    between atoms: _132  and  _135
REMARK   59  A    between atoms: _135  and  _136
REMARK   60  A    between atoms: _141  and  _142
REMARK   61  A    between atoms: _144  and  _146
REMARK   62  A    between atoms: _146  and  _147
REMARK   63  A    between atoms: _146  and  _149
REMARK   64  A    between atoms: _149  and  _150
REMARK   65  A    between atoms: _150  and  _151
REMARK   66  A    between atoms: _151  and  _152
REMARK   67  A    between atoms: _161  and  _163
REMARK   68  A    between atoms: _163  and  _164
REMARK   69  A    between atoms: _163  and  _166
REMARK   70  A    between atoms: _166  and  _167
REMARK   71  A    between atoms: _167  and  _168
REMARK   72  A    between atoms: _168  and  _169
REMARK   73  A    between atoms: _169  and  _170
REMARK   74  A    between atoms: _174  and  _176
REMARK   75  A    between atoms: _181  and  _182
REMARK   76  A    between atoms: _182  and  CA_267
REMARK   77  A    between atoms: _186  and  _189
REMARK   78  A    between atoms: _189  and  _190
REMARK   79  A    between atoms: _190  and  _191
REMARK   80  A    between atoms: _198  and  _199
REMARK   81  A    between atoms: _205  and  _207
REMARK   82  A    between atoms: _207  and  _208
REMARK   83  A    between atoms: _207  and  _210
REMARK   84  A    between atoms: _210  and  _211
REMARK   85  A    between atoms: _213  and  _215
REMARK   86  A    between atoms: _215  and  _216
REMARK   87  A    between atoms: _215  and  _218
REMARK   88  A    between atoms: _218  and  _219
REMARK   89  A    between atoms: _219  and  _220
REMARK   90  A    between atoms: _220  and  _221
REMARK   91  A    between atoms: _221  and  _222
REMARK   92  A    between atoms: _226  and  _228
REMARK   93  A    between atoms: _228  and  _229
REMARK   94  A    between atoms: _228  and  _231
REMARK   95  A    between atoms: _231  and  _232
REMARK   96  A    between atoms: _238  and  _240
REMARK   97  A    between atoms: _240  and  _241
REMARK   98  A    between atoms: _240  and  _243
REMARK   99  A    between atoms: _243  and  _244
REMARK  100  A    between atoms: _247  and  _249
REMARK  101  A    between atoms: _249  and  _250
REMARK  102  A    between atoms: _249  and  _252
REMARK  103  A    between atoms: _252  and  _253
REMARK  104  A    between atoms: _255  and  _257
REMARK  105  A    between atoms: _257  and  _258
REMARK  106  A    between atoms: _257  and  _260
REMARK  107  A    between atoms: _260  and  _261
REMARK  108  A    between atoms: _261  and  _262
REMARK  109  A    between atoms: _262  and  _263
REMARK  110  A    between atoms: _262  and  _264
REMARK  111  A    between atoms: _263  and  CA_267
REMARK                            x       y       z     vdW  Elec       q    Type
REMARK                         _______ _______ _______ _____ _____    ______ ____
ROOT
ATOM      1  NE  ARG A   1      22.202  16.261  62.652  0.00  0.00    -0.265 N 
ATOM      2  CZ  ARG A   1      21.784  17.399  63.184  0.00  0.00    +0.342 C 
ATOM      3  NH2 ARG A   1      20.701  17.410  63.958  0.00  0.00    -0.292 N 
ATOM      4 HH21 ARG A   1      20.370  18.303  64.377  0.00  0.00    +0.255 HD
ATOM      5 HH22 ARG A   1      20.185  16.526  64.144  0.00  0.00    +0.255 HD
ATOM      6  NH1 ARG A   1      22.439  18.515  62.931  0.00  0.00    -0.292 N 
ATOM      7 HH11 ARG A   1      22.116  19.413  63.345  0.00  0.00    +0.255 HD
ATOM      8 HH12 ARG A   1      23.278  18.498  62.317  0.00  0.00    +0.255 HD
ATOM      9  HE  ARG A   1      23.046  16.285  62.045  0.00  0.00    +0.259 HD
ENDROOT
BRANCH   1  10
ATOM     10  CD  ARG A   1      21.547  14.976  62.869  0.00  0.00    +0.174 C 
BRANCH  10  11
ATOM     11  CG  ARG A   1      22.311  14.151  63.870  0.00  0.00    +0.045 C 
BRANCH  11  12
ATOM     12  CB  ARG A   1      23.596  13.711  63.229  0.00  0.00    +0.029 C 
BRANCH  12  13
ATOM     13  CA  ARG A   1      23.393  12.485  62.325  0.00  0.00    +0.133 C 
BRANCH  13  14
ATOM     14  N   ARG A   1      23.119  11.305  63.131  0.00  0.00    -0.239 NA
ATOM     15  H   ARG A   1      22.326  10.690  62.858  0.00  0.00    +0.142 HD
ENDBRANCH  13  14
BRANCH  13  16
ATOM     16  C   ARG A   1      24.558  12.366  61.340  0.00  0.00    +0.224 C 
ATOM     17  O   ARG A   1      24.696  13.195  60.458  0.00  0.00    -0.287 OA
ENDBRANCH  13  16
ENDBRANCH  12  13
ENDBRANCH  11  12
ENDBRANCH  10  11
ENDBRANCH   1  10
TORSDOF 6
REMARK  Name = ../refined-set-2016/3kqr/3kqr_pocket.pdb
REMARK  111 active torsions:
REMARK  status: ('A' for Active; 'I' for Inactive)
REMARK    1  A    between atoms: _1  and  _3
REMARK    2  A    between atoms: _3  and  _4
REMARK    3  A    between atoms: _7  and  _9
REMARK    4  A    between atoms: _9  and  _10
REMARK    5  A    between atoms: _9  and  _12
REMARK    6  A    between atoms: _12  and  _13
REMARK    7  A    between atoms: _18  and  _19
REMARK    8  A    between atoms: _21  and  _23
REMARK    9  A    between atoms: _23  and  _24
REMARK   10  A    between atoms: _23  and  _26
REMARK   11  A    between atoms: _26  and  _27
REMARK   12  A    between atoms: _29  and  _31
REMARK   13  A    between atoms: _31  and  _32
REMARK   14  A    between atoms: _31  and  _34
REMARK   15  A    between atoms: _34  and  _35
REMARK   16  A    between atoms: _37  and  _39
REMARK   17  A    between atoms: _39  and  _40
REMARK   18  A    between atoms: _39  and  _42
REMARK   19  A    between atoms: _42  and  _43
REMARK   20  A    between atoms: _48  and  _50
REMARK   21  A    between atoms: _50  and  _51
REMARK   22  A    between atoms: _50  and  _53
REMARK   23  A    between atoms: _53  and  _54
REMARK   24  A    between atoms: _57  and  _59
REMARK   25  A    between atoms: _59  and  _60
REMARK   26  A    between atoms: _59  and  _62
REMARK   27  A    between atoms: _62  and  _63
REMARK   28  A    between atoms: _68  and  _70
REMARK   29  A    between atoms: _70  and  _71
REMARK   30  A    between atoms: _70  and  _73
REMARK   31  A    between atoms: _73  and  _74
REMARK   32  A    between atoms: _77  and  _79
REMARK   33  A    between atoms: _79  and  _80
REMARK   34  A    between atoms: _79  and  _82
REMARK   35  A    between atoms: _85  and  _87
REMARK   36  A    between atoms: _87  and  _88
REMARK   37  A    between atoms: _87  and  _90
REMARK   38  A    between atoms: _90  and  _91
REMARK   39  A    between atoms: _96  and  _97
REMARK   40  A    between atoms: _99  and  _101
REMARK   41  A    between atoms: _101  and  _102
REMARK   42  A    between atoms: _101  and  _104
REMARK   43  A    between atoms: _104  and  _105
REMARK   44  A    between atoms: _105  and  _106
REMARK   45  A    between atoms: _106  and  _107
REMARK   46  A    between atoms: _107  and  _108
REMARK   47  A    between atoms: _112  and  _114
REMARK   48  A    between atoms: _114  and  _115
REMARK   49  A    between atoms: _114  and  _117
REMARK   50  A    between atoms: _117  and  _118
REMARK   51  A    between atoms: _118  and  _119
REMARK   52  A    between atoms: _122  and  _124
REMARK   53  A    between atoms: _124  and  _125
REMARK   54  A    between atoms: _124  and  _127
REMARK   55  A    between atoms: _127  and  _128
REMARK   56  A    between atoms: _130  and  _132
REMARK   57  A    between atoms: _132  and  _133
REMARK   58  A    between atoms: _132  and  _135
REMARK   59  A    between atoms: _135  and  _136
REMARK   60  A    between atoms: _141  and  _142
REMARK   61  A    between atoms: _144  and  _146
REMARK   62  A    between atoms: _146  and  _147
REMARK   63  A    between atoms: _146  and  _149
REMARK   64  A    between atoms: _149  and  _150
REMARK   65  A    between atoms: _150  and  _151
REMARK   66  A    between atoms: _151  and  _152
REMARK   67  A    between atoms: _161  and  _163
REMARK   68  A    between atoms: _163  and  _164
REMARK   69  A    between atoms: _163  and  _166
REMARK   70  A    between atoms: _166  and  _167
REMARK   71  A    between atoms: _167  and  _168
REMARK   72  A    between atoms: _168  and  _169
REMARK   73  A    between atoms: _169  and  _170
REMARK   74  A    between atoms: _174  and  _176
REMARK   75  A    between atoms: _181  and  _182
REMARK   76  A    between atoms: _182  and  CA_267
REMARK   77  A    between atoms: _186  and  _189
REMARK   78  A    between atoms: _189  and  _190
REMARK   79  A    between atoms: _190  and  _191
REMARK   80  A    between atoms: _198  and  _199
REMARK   81  A    between atoms: _205  and  _207
REMARK   82  A    between atoms: _207  and  _208
REMARK   83  A    between atoms: _207  and  _210
REMARK   84  A    between atoms: _210  and  _211
REMARK   85  A    between atoms: _213  and  _215
REMARK   86  A    between atoms: _215  and  _216
REMARK   87  A    between atoms: _215  and  _218
REMARK   88  A    between atoms: _218  and  _219
REMARK   89  A    between atoms: _219  and  _220
REMARK   90  A    between atoms: _220  and  _221
REMARK   91  A    between atoms: _221  and  _222
REMARK   92  A    between atoms: _226  and  _228
REMARK   93  A    between atoms: _228  and  _229
REMARK   94  A    between atoms: _228  and  _231
REMARK   95  A    between atoms: _231  and  _232
REMARK   96  A    between atoms: _238  and  _240
REMARK   97  A    between atoms: _240  and  _241
REMARK   98  A    between atoms: _240  and  _243
REMARK   99  A    between atoms: _243  and  _244
REMARK  100  A    between atoms: _247  and  _249
REMARK  101  A    between atoms: _249  and  _250
REMARK  102  A    between atoms: _249  and  _252
REMARK  103  A    between atoms: _252  and  _253
REMARK  104  A    between atoms: _255  and  _257
REMARK  105  A    between atoms: _257  and  _258
REMARK  106  A    between atoms: _257  and  _260
REMARK  107  A    between atoms: _260  and  _261
REMARK  108  A    between atoms: _261  and  _262
REMARK  109  A    between atoms: _262  and  _263
REMARK  110  A    between atoms: _262  and  _264
REMARK  111  A    between atoms: _263  and  CA_267
REMARK                            x       y       z     vdW  Elec       q    Type
REMARK                         _______ _______ _______ _____ _____    ______ ____
ROOT
ATOM      1  CG  LYS A   1      25.568  11.322  55.464  0.00  0.00    -0.000 C 
ENDROOT
BRANCH   1   2
ATOM      2  CB  LYS A   1      24.852  10.293  56.220  0.00  0.00    +0.025 C 
BRANCH   2   3
ATOM      3  CA  LYS A   1      25.777   9.465  57.101  0.00  0.00    +0.133 C 
BRANCH   3   4
ATOM      4  N   LYS A   1      26.357  10.241  58.201  0.00  0.00    -0.239 NA
ATOM      5  H   LYS A   1      27.188  10.843  58.029  0.00  0.00    +0.142 HD
ENDBRANCH   3   4
BRANCH   3   6
ATOM      6  C   LYS A   1      26.814   8.775  56.247  0.00  0.00    +0.224 C 
ATOM      7  O   LYS A   1      27.997   9.175  56.151  0.00  0.00    -0.287 OA
ENDBRANCH   3   6
ENDBRANCH   2   3
ENDBRANCH   1   2
BRANCH   1   8
ATOM      8  CD  LYS A   1      24.624  12.197  54.653  0.00  0.00    -0.024 C 
BRANCH   8   9
ATOM      9  CE  LYS A   1      24.048  11.441  53.484  0.00  0.00    -0.086 C 
BRANCH   9  10
ATOM     10  NZ  LYS A   1      23.458  12.403  52.499  0.00  0.00    +0.380 N 
ATOM     11  HZ1 LYS A   1      22.704  12.951  52.960  0.00  0.00    -0.089 HD
ATOM     12  HZ2 LYS A   1      24.200  13.049  52.160  0.00  0.00    -0.089 HD
ATOM     13  HZ3 LYS A   1      23.062  11.875  51.695  0.00  0.00    -0.089 HD
ENDBRANCH   9  10
ENDBRANCH   8   9
ENDBRANCH   1   8
TORSDOF 7
REMARK  Name = ../refined-set-2016/3kqr/3kqr_pocket.pdb
REMARK  111 active torsions:
REMARK  status: ('A' for Active; 'I' for Inactive)
REMARK    1  A    between atoms: _1  and  _3
REMARK    2  A    between atoms: _3  and  _4
REMARK    3  A    between atoms: _7  and  _9
REMARK    4  A    between atoms: _9  and  _10
REMARK    5  A    between atoms: _9  and  _12
REMARK    6  A    between atoms: _12  and  _13
REMARK    7  A    between atoms: _18  and  _19
REMARK    8  A    between atoms: _21  and  _23
REMARK    9  A    between atoms: _23  and  _24
REMARK   10  A    between atoms: _23  and  _26
REMARK   11  A    between atoms: _26  and  _27
REMARK   12  A    between atoms: _29  and  _31
REMARK   13  A    between atoms: _31  and  _32
REMARK   14  A    between atoms: _31  and  _34
REMARK   15  A    between atoms: _34  and  _35
REMARK   16  A    between atoms: _37  and  _39
REMARK   17  A    between atoms: _39  and  _40
REMARK   18  A    between atoms: _39  and  _42
REMARK   19  A    between atoms: _42  and  _43
REMARK   20  A    between atoms: _48  and  _50
REMARK   21  A    between atoms: _50  and  _51
REMARK   22  A    between atoms: _50  and  _53
REMARK   23  A    between atoms: _53  and  _54
REMARK   24  A    between atoms: _57  and  _59
REMARK   25  A    between atoms: _59  and  _60
REMARK   26  A    between atoms: _59  and  _62
REMARK   27  A    between atoms: _62  and  _63
REMARK   28  A    between atoms: _68  and  _70
REMARK   29  A    between atoms: _70  and  _71
REMARK   30  A    between atoms: _70  and  _73
REMARK   31  A    between atoms: _73  and  _74
REMARK   32  A    between atoms: _77  and  _79
REMARK   33  A    between atoms: _79  and  _80
REMARK   34  A    between atoms: _79  and  _82
REMARK   35  A    between atoms: _85  and  _87
REMARK   36  A    between atoms: _87  and  _88
REMARK   37  A    between atoms: _87  and  _90
REMARK   38  A    between atoms: _90  and  _91
REMARK   39  A    between atoms: _96  and  _97
REMARK   40  A    between atoms: _99  and  _101
REMARK   41  A    between atoms: _101  and  _102
REMARK   42  A    between atoms: _101  and  _104
REMARK   43  A    between atoms: _104  and  _105
REMARK   44  A    between atoms: _105  and  _106
REMARK   45  A    between atoms: _106  and  _107
REMARK   46  A    between atoms: _107  and  _108
REMARK   47  A    between atoms: _112  and  _114
REMARK   48  A    between atoms: _114  and  _115
REMARK   49  A    between atoms: _114  and  _117
REMARK   50  A    between atoms: _117  and  _118
REMARK   51  A    between atoms: _118  and  _119
REMARK   52  A    between atoms: _122  and  _124
REMARK   53  A    between atoms: _124  and  _125
REMARK   54  A    between atoms: _124  and  _127
REMARK   55  A    between atoms: _127  and  _128
REMARK   56  A    between atoms: _130  and  _132
REMARK   57  A    between atoms: _132  and  _133
REMARK   58  A    between atoms: _132  and  _135
REMARK   59  A    between atoms: _135  and  _136
REMARK   60  A    between atoms: _141  and  _142
REMARK   61  A    between atoms: _144  and  _146
REMARK   62  A    between atoms: _146  and  _147
REMARK   63  A    between atoms: _146  and  _149
REMARK   64  A    between atoms: _149  and  _150
REMARK   65  A    between atoms: _150  and  _151
REMARK   66  A    between atoms: _151  and  _152
REMARK   67  A    between atoms: _161  and  _163
REMARK   68  A    between atoms: _163  and  _164
REMARK   69  A    between atoms: _163  and  _166
REMARK   70  A    between atoms: _166  and  _167
REMARK   71  A    between atoms: _167  and  _168
REMARK   72  A    between atoms: _168  and  _169
REMARK   73  A    between atoms: _169  and  _170
REMARK   74  A    between atoms: _174  and  _176
REMARK   75  A    between atoms: _181  and  _182
REMARK   76  A    between atoms: _182  and  CA_267
REMARK   77  A    between atoms: _186  and  _189
REMARK   78  A    between atoms: _189  and  _190
REMARK   79  A    between atoms: _190  and  _191
REMARK   80  A    between atoms: _198  and  _199
REMARK   81  A    between atoms: _205  and  _207
REMARK   82  A    between atoms: _207  and  _208
REMARK   83  A    between atoms: _207  and  _210
REMARK   84  A    between atoms: _210  and  _211
REMARK   85  A    between atoms: _213  and  _215
REMARK   86  A    between atoms: _215  and  _216
REMARK   87  A    between atoms: _215  and  _218
REMARK   88  A    between atoms: _218  and  _219
REMARK   89  A    between atoms: _219  and  _220
REMARK   90  A    between atoms: _220  and  _221
REMARK   91  A    between atoms: _221  and  _222
REMARK   92  A    between atoms: _226  and  _228
REMARK   93  A    between atoms: _228  and  _229
REMARK   94  A    between atoms: _228  and  _231
REMARK   95  A    between atoms: _231  and  _232
REMARK   96  A    between atoms: _238  and  _240
REMARK   97  A    between atoms: _240  and  _241
REMARK   98  A    between atoms: _240  and  _243
REMARK   99  A    between atoms: _243  and  _244
REMARK  100  A    between atoms: _247  and  _249
REMARK  101  A    between atoms: _249  and  _250
REMARK  102  A    between atoms: _249  and  _252
REMARK  103  A    between atoms: _252  and  _253
REMARK  104  A    between atoms: _255  and  _257
REMARK  105  A    between atoms: _257  and  _258
REMARK  106  A    between atoms: _257  and  _260
REMARK  107  A    between atoms: _260  and  _261
REMARK  108  A    between atoms: _261  and  _262
REMARK  109  A    between atoms: _262  and  _263
REMARK  110  A    between atoms: _262  and  _264
REMARK  111  A    between atoms: _263  and  CA_267
REMARK                            x       y       z     vdW  Elec       q    Type
REMARK                         _______ _______ _______ _____ _____    ______ ____
ROOT
ATOM      1  C   UNK A   1      10.847  12.202  57.706  0.00  0.00    +0.000 C 
ATOM      2  C   UNK A   1      10.652  13.100  58.942  0.00  0.00    +0.000 C 
ATOM      3  N   UNK A   2      11.049  12.620  60.110  0.00  0.00    +0.000 N 
ATOM      4  C   UNK A   2      10.870  13.389  61.331  0.00  0.00    +0.000 C 
ATOM      5  C   UNK A   2      11.963  14.407  61.448  0.00  0.00    +0.000 C 
ATOM      6  N   UNK A   3      11.617  15.605  61.881  0.00  0.00    +0.000 N 
ATOM      7  C   UNK A   3      12.645  16.549  62.325  0.00  0.00    +0.000 C 
ATOM      8  C   UNK A   3      12.584  17.851  61.520  0.00  0.00    +0.000 C 
ATOM      9  C   UNK A   3      13.245  17.727  60.159  0.00  0.00    +0.000 C 
ATOM     10  O   UNK A   3      14.004  16.744  59.965  0.00  0.00    +0.000 OA
ATOM     11 CA   UNK A   3      15.194  14.710  60.168  0.00  0.00    +0.000 Ca
ATOM     12  O   UNK A   1      14.527  12.797  58.899  0.00  0.00    +0.000 OA
ATOM     13  C   UNK A   1      13.814  13.354  58.043  0.00  0.00    +0.000 C 
ATOM     14  C   UNK A   1      13.228  12.522  56.945  0.00  0.00    +0.000 C 
ATOM     15  O   UNK A   3      13.038  18.598  59.272  0.00  0.00    +0.000 OA
ATOM     16  H   UNK A   3      10.614  15.879  61.907  0.00  0.00    +0.000 HD
ATOM     17  O   UNK A   2      13.116  14.101  61.193  0.00  0.00    +0.000 OA
ATOM     18  H   UNK A   2      11.494  11.681  60.155  0.00  0.00    +0.000 HD
ATOM     19  O   UNK A   1      10.114  14.192  58.825  0.00  0.00    +0.000 OA
ATOM     20  C   UNK A   1      11.809  12.847  56.700  0.00  0.00    +0.000 C 
ENDROOT
BRANCH   7  21
ATOM     21  C   UNK A   3      12.498  16.799  63.830  0.00  0.00    +0.000 C 
ATOM     22  N   SER A   4      11.454  16.225  64.437  0.00  0.00    +0.000 N 
ATOM     23  H   SER A   4      10.742  15.733  63.860  0.00  0.00    +0.000 HD
ATOM     24  O   UNK A   3      13.348  17.462  64.435  0.00  0.00    +0.000 OA
BRANCH  22  25
ATOM     25  CA  SER A   4      11.283  16.269  65.895  0.00  0.00    +0.000 C 
BRANCH  25  26
ATOM     26  C   SER A   4      11.026  14.865  66.450  0.00  0.00    +0.000 C 
ATOM     27  O   SER A   4      11.059  13.889  65.700  0.00  0.00    +0.000 OA
ENDBRANCH  25  26
BRANCH  25  28
ATOM     28  CB  SER A   4      10.106  17.169  66.254  0.00  0.00    +0.000 C 
BRANCH  28  29
ATOM     29  OG  SER A   4       8.893  16.512  65.941  0.00  0.00    +0.000 OA
ATOM     30  H   SER A   4       8.869  16.309  64.972  0.00  0.00    +0.000 HD
ENDBRANCH  28  29
ENDBRANCH  25  28
ENDBRANCH  22  25
ENDBRANCH   7  21
BRANCH   1  31
ATOM     31  N   UNK A   1       9.589  12.013  57.049  0.00  0.00    +0.000 NA
ATOM     32  H   UNK A   1       9.257  12.749  56.393  0.00  0.00    +0.000 HD
ENDBRANCH   1  31
BRANCH  13  33
ATOM     33  O   UNK A   1      13.570  14.592  58.031  0.00  0.00    +0.000 OA
BRANCH  33  34
ATOM     34 CA   UNK A   1      13.302  16.860  57.480  0.00  0.00    +0.000 Ca
BRANCH  34  35
ATOM     35  O   UNK A   1      12.711  16.009  55.362  0.00  0.00    +0.000 OA
BRANCH  35  36
ATOM     36  C   UNK A   1      13.285  15.756  54.299  0.00  0.00    +0.000 C 
BRANCH  36  37
ATOM     37  N   UNK A   1      14.607  15.590  54.212  0.00  0.00    +0.000 NA
ATOM     38  H   UNK A   1      15.199  15.673  55.063  0.00  0.00    +0.000 HD
ATOM     39  H   UNK A   1      15.045  15.378  53.293  0.00  0.00    +0.000 HD
ENDBRANCH  36  37
BRANCH  36  40
ATOM     40  C   UNK A   1      12.511  15.585  53.058  0.00  0.00    +0.000 C 
BRANCH  40  41
ATOM     41  C   UNK A   1      11.571  14.418  53.167  0.00  0.00    +0.000 C 
BRANCH  41  42
ATOM     42  C   UNK A   1      10.745  14.236  51.914  0.00  0.00    +0.000 C 
BRANCH  42  43
ATOM     43  N   UNK A   1      10.039  15.492  51.548  0.00  0.00    +0.000 N 
ATOM     44  H   UNK A   1       9.423  15.942  52.255  0.00  0.00    +0.000 HD
ATOM     45  C   UNK A   1      10.164  16.065  50.351  0.00  0.00    +0.000 C 
ATOM     46  O   UNK A   1      10.935  15.674  49.485  0.00  0.00    +0.000 OA
BRANCH  45  47
ATOM     47  C   UNK A   1       9.270  17.269  50.058  0.00  0.00    +0.000 C 
BRANCH  47  48
ATOM     48  N   UNK A   1       8.327  17.556  51.121  0.00  0.00    +0.000 NA
ATOM     49  H   UNK A   1       8.496  18.353  51.768  0.00  0.00    +0.000 HD
ENDBRANCH  47  48
BRANCH  47  50
ATOM     50  C   UNK A   1      10.141  18.493  49.773  0.00  0.00    +0.000 C 
BRANCH  50  51
ATOM     51  O   UNK A   1      11.090  18.685  50.801  0.00  0.00    +0.000 OA
ATOM     52  H   UNK A   1      10.620  18.821  51.661  0.00  0.00    +0.000 HD
ENDBRANCH  50  51
ENDBRANCH  47  50
ENDBRANCH  45  47
ENDBRANCH  42  43
BRANCH  42  53
ATOM     53  C   UNK A   1       9.772  13.092  52.164  0.00  0.00    +0.000 C 
ATOM     54  O   UNK A   2      10.183  11.993  52.559  0.00  0.00    +0.000 OA
ENDBRANCH  42  53
ENDBRANCH  41  42
ENDBRANCH  40  41
ENDBRANCH  36  40
ENDBRANCH  35  36
ENDBRANCH  34  35
ENDBRANCH  33  34
ENDBRANCH  13  33
BRANCH   4  55
ATOM     55  C   UNK A   2      10.933  12.497  62.555  0.00  0.00    +0.000 C 
BRANCH  55  56
ATOM     56  C   UNK A   2       9.836  11.455  62.665  0.00  0.00    +0.000 C 
BRANCH  56  57
ATOM     57  C   UNK A   2      10.108  10.515  63.806  0.00  0.00    +0.000 C 
ATOM     58  O   UNK A   2       9.791  10.811  64.960  0.00  0.00    +0.000 OA
ATOM     59  N   UNK A   2      10.761   9.393  63.507  0.00  0.00    +0.000 N 
ATOM     60  H   UNK A   2      11.023   8.727  64.262  0.00  0.00    +0.000 HD
ATOM     61  H   UNK A   2      11.009   9.183  62.519  0.00  0.00    +0.000 HD
ENDBRANCH  56  57
ENDBRANCH  55  56
ENDBRANCH   4  55
TORSDOF 23
REMARK  Name = ../refined-set-2016/3kqr/3kqr_pocket.pdb
REMARK  111 active torsions:
REMARK  status: ('A' for Active; 'I' for Inactive)
REMARK    1  A    between atoms: _1  and  _3
REMARK    2  A    between atoms: _3  and  _4
REMARK    3  A    between atoms: _7  and  _9
REMARK    4  A    between atoms: _9  and  _10
REMARK    5  A    between atoms: _9  and  _12
REMARK    6  A    between atoms: _12  and  _13
REMARK    7  A    between atoms: _18  and  _19
REMARK    8  A    between atoms: _21  and  _23
REMARK    9  A    between atoms: _23  and  _24
REMARK   10  A    between atoms: _23  and  _26
REMARK   11  A    between atoms: _26  and  _27
REMARK   12  A    between atoms: _29  and  _31
REMARK   13  A    between atoms: _31  and  _32
REMARK   14  A    between atoms: _31  and  _34
REMARK   15  A    between atoms: _34  and  _35
REMARK   16  A    between atoms: _37  and  _39
REMARK   17  A    between atoms: _39  and  _40
REMARK   18  A    between atoms: _39  and  _42
REMARK   19  A    between atoms: _42  and  _43
REMARK   20  A    between atoms: _48  and  _50
REMARK   21  A    between atoms: _50  and  _51
REMARK   22  A    between atoms: _50  and  _53
REMARK   23  A    between atoms: _53  and  _54
REMARK   24  A    between atoms: _57  and  _59
REMARK   25  A    between atoms: _59  and  _60
REMARK   26  A    between atoms: _59  and  _62
REMARK   27  A    between atoms: _62  and  _63
REMARK   28  A    between atoms: _68  and  _70
REMARK   29  A    between atoms: _70  and  _71
REMARK   30  A    between atoms: _70  and  _73
REMARK   31  A    between atoms: _73  and  _74
REMARK   32  A    between atoms: _77  and  _79
REMARK   33  A    between atoms: _79  and  _80
REMARK   34  A    between atoms: _79  and  _82
REMARK   35  A    between atoms: _85  and  _87
REMARK   36  A    between atoms: _87  and  _88
REMARK   37  A    between atoms: _87  and  _90
REMARK   38  A    between atoms: _90  and  _91
REMARK   39  A    between atoms: _96  and  _97
REMARK   40  A    between atoms: _99  and  _101
REMARK   41  A    between atoms: _101  and  _102
REMARK   42  A    between atoms: _101  and  _104
REMARK   43  A    between atoms: _104  and  _105
REMARK   44  A    between atoms: _105  and  _106
REMARK   45  A    between atoms: _106  and  _107
REMARK   46  A    between atoms: _107  and  _108
REMARK   47  A    between atoms: _112  and  _114
REMARK   48  A    between atoms: _114  and  _115
REMARK   49  A    between atoms: _114  and  _117
REMARK   50  A    between atoms: _117  and  _118
REMARK   51  A    between atoms: _118  and  _119
REMARK   52  A    between atoms: _122  and  _124
REMARK   53  A    between atoms: _124  and  _125
REMARK   54  A    between atoms: _124  and  _127
REMARK   55  A    between atoms: _127  and  _128
REMARK   56  A    between atoms: _130  and  _132
REMARK   57  A    between atoms: _132  and  _133
REMARK   58  A    between atoms: _132  and  _135
REMARK   59  A    between atoms: _135  and  _136
REMARK   60  A    between atoms: _141  and  _142
REMARK   61  A    between atoms: _144  and  _146
REMARK   62  A    between atoms: _146  and  _147
REMARK   63  A    between atoms: _146  and  _149
REMARK   64  A    between atoms: _149  and  _150
REMARK   65  A    between atoms: _150  and  _151
REMARK   66  A    between atoms: _151  and  _152
REMARK   67  A    between atoms: _161  and  _163
REMARK   68  A    between atoms: _163  and  _164
REMARK   69  A    between atoms: _163  and  _166
REMARK   70  A    between atoms: _166  and  _167
REMARK   71  A    between atoms: _167  and  _168
REMARK   72  A    between atoms: _168  and  _169
REMARK   73  A    between atoms: _169  and  _170
REMARK   74  A    between atoms: _174  and  _176
REMARK   75  A    between atoms: _181  and  _182
REMARK   76  A    between atoms: _182  and  CA_267
REMARK   77  A    between atoms: _186  and  _189
REMARK   78  A    between atoms: _189  and  _190
REMARK   79  A    between atoms: _190  and  _191
REMARK   80  A    between atoms: _198  and  _199
REMARK   81  A    between atoms: _205  and  _207
REMARK   82  A    between atoms: _207  and  _208
REMARK   83  A    between atoms: _207  and  _210
REMARK   84  A    between atoms: _210  and  _211
REMARK   85  A    between atoms: _213  and  _215
REMARK   86  A    between atoms: _215  and  _216
REMARK   87  A    between atoms: _215  and  _218
REMARK   88  A    between atoms: _218  and  _219
REMARK   89  A    between atoms: _219  and  _220
REMARK   90  A    between atoms: _220  and  _221
REMARK   91  A    between atoms: _221  and  _222
REMARK   92  A    between atoms: _226  and  _228
REMARK   93  A    between atoms: _228  and  _229
REMARK   94  A    between atoms: _228  and  _231
REMARK   95  A    between atoms: _231  and  _232
REMARK   96  A    between atoms: _238  and  _240
REMARK   97  A    between atoms: _240  and  _241
REMARK   98  A    between atoms: _240  and  _243
REMARK   99  A    between atoms: _243  and  _244
REMARK  100  A    between atoms: _247  and  _249
REMARK  101  A    between atoms: _249  and  _250
REMARK  102  A    between atoms: _249  and  _252
REMARK  103  A    between atoms: _252  and  _253
REMARK  104  A    between atoms: _255  and  _257
REMARK  105  A    between atoms: _257  and  _258
REMARK  106  A    between atoms: _257  and  _260
REMARK  107  A    between atoms: _260  and  _261
REMARK  108  A    between atoms: _261  and  _262
REMARK  109  A    between atoms: _262  and  _263
REMARK  110  A    between atoms: _262  and  _264
REMARK  111  A    between atoms: _263  and  CA_267
REMARK                            x       y       z     vdW  Elec       q    Type
REMARK                         _______ _______ _______ _____ _____    ______ ____
ROOT
ATOM      1  CA  PHE A   2       7.449  16.524  58.761  0.00  0.00    +0.153 C 
ENDROOT
BRANCH   1   4
ATOM      2  C   LYS A   1       8.362  17.555  60.769  0.00  0.00    +0.238 C 
ATOM      3  O   LYS A   1       9.524  17.511  60.350  0.00  0.00    -0.274 OA
ATOM      4  N   PHE A   2       7.319  17.089  60.093  0.00  0.00    -0.297 N 
ATOM      5  H   PHE A   2       6.377  17.130  60.532  0.00  0.00    +0.150 HD
BRANCH   2   6
ATOM      6  CA  LYS A   1       8.041  18.159  62.131  0.00  0.00    +0.145 C 
BRANCH   6   7
ATOM      7  N   LYS A   1       7.291  17.219  62.961  0.00  0.00    -0.238 NA
ATOM      8  H   LYS A   1       6.377  17.521  63.354  0.00  0.00    +0.142 HD
ENDBRANCH   6   7
BRANCH   6   9
ATOM      9  CB  LYS A   1       9.347  18.589  62.813  0.00  0.00    +0.026 C 
BRANCH   9  10
ATOM     10  CG  LYS A   1       9.187  19.637  63.907  0.00  0.00    -0.000 C 
BRANCH  10  11
ATOM     11  CD  LYS A   1       9.432  21.038  63.369  0.00  0.00    -0.024 C 
BRANCH  11  12
ATOM     12  CE  LYS A   1       9.599  22.052  64.502  0.00  0.00    -0.086 C 
BRANCH  12  13
ATOM     13  NZ  LYS A   1      10.868  21.845  65.257  0.00  0.00    +0.380 N 
ATOM     14  HZ1 LYS A   1      10.939  22.554  66.015  0.00  0.00    -0.089 HD
ATOM     15  HZ2 LYS A   1      10.872  20.891  65.672  0.00  0.00    -0.089 HD
ATOM     16  HZ3 LYS A   1      11.676  21.946  64.610  0.00  0.00    -0.089 HD
ENDBRANCH  12  13
ENDBRANCH  11  12
ENDBRANCH  10  11
ENDBRANCH   9  10
ENDBRANCH   6   9
ENDBRANCH   2   6
ENDBRANCH   1   4
BRANCH   1  17
ATOM     17  C   PHE A   2       7.678  17.571  57.668  0.00  0.00    +0.241 C 
ATOM     18  O   PHE A   2       7.508  18.763  57.873  0.00  0.00    -0.273 OA
ATOM     19  N   ASP A   3       8.078  17.101  56.497  0.00  0.00    -0.298 N 
ATOM     20  H   ASP A   3       8.165  16.071  56.386  0.00  0.00    +0.150 HD
BRANCH  19  21
ATOM     21  CA  ASP A   3       8.403  17.944  55.355  0.00  0.00    +0.148 C 
BRANCH  21  22
ATOM     22  C   ASP A   3       7.863  17.250  54.118  0.00  0.00    +0.227 C 
ATOM     23  O   ASP A   3       8.300  16.148  53.784  0.00  0.00    -0.286 OA
ENDBRANCH  21  22
BRANCH  21  24
ATOM     24  CB  ASP A   3       9.919  18.096  55.268  0.00  0.00    +0.142 C 
BRANCH  24  25
ATOM     25  CG  ASP A   3      10.390  18.873  54.038  0.00  0.00    +0.367 C 
ATOM     26  OD2 ASP A   3      11.592  19.255  54.021  0.00  0.00    -0.246 OA
ATOM     27  OD1 ASP A   3       9.600  19.092  53.096  0.00  0.00    -0.246 OA
ENDBRANCH  24  25
ENDBRANCH  21  24
ENDBRANCH  19  21
ENDBRANCH   1  17
BRANCH   1  28
ATOM     28  CB  PHE A   2       6.206  15.680  58.458  0.00  0.00    +0.055 C 
BRANCH  28  29
ATOM     29  CG  PHE A   2       5.884  14.660  59.540  0.00  0.00    -0.020 A 
ATOM     30  CD2 PHE A   2       6.886  13.956  60.189  0.00  0.00    -0.004 A 
ATOM     31  CE2 PHE A   2       6.586  13.005  61.164  0.00  0.00    -0.000 A 
ATOM     32  CZ  PHE A   2       5.260  12.751  61.502  0.00  0.00    -0.000 A 
ATOM     33  CE1 PHE A   2       4.249  13.451  60.852  0.00  0.00    -0.000 A 
ATOM     34  CD1 PHE A   2       4.569  14.393  59.878  0.00  0.00    -0.004 A 
ENDBRANCH  28  29
ENDBRANCH   1  28
TORSDOF 15
REMARK  Name = ../refined-set-2016/3kqr/3kqr_pocket.pdb
REMARK  111 active torsions:
REMARK  status: ('A' for Active; 'I' for Inactive)
REMARK    1  A    between atoms: _1  and  _3
REMARK    2  A    between atoms: _3  and  _4
REMARK    3  A    between atoms: _7  and  _9
REMARK    4  A    between atoms: _9  and  _10
REMARK    5  A    between atoms: _9  and  _12
REMARK    6  A    between atoms: _12  and  _13
REMARK    7  A    between atoms: _18  and  _19
REMARK    8  A    between atoms: _21  and  _23
REMARK    9  A    between atoms: _23  and  _24
REMARK   10  A    between atoms: _23  and  _26
REMARK   11  A    between atoms: _26  and  _27
REMARK   12  A    between atoms: _29  and  _31
REMARK   13  A    between atoms: _31  and  _32
REMARK   14  A    between atoms: _31  and  _34
REMARK   15  A    between atoms: _34  and  _35
REMARK   16  A    between atoms: _37  and  _39
REMARK   17  A    between atoms: _39  and  _40
REMARK   18  A    between atoms: _39  and  _42
REMARK   19  A    between atoms: _42  and  _43
REMARK   20  A    between atoms: _48  and  _50
REMARK   21  A    between atoms: _50  and  _51
REMARK   22  A    between atoms: _50  and  _53
REMARK   23  A    between atoms: _53  and  _54
REMARK   24  A    between atoms: _57  and  _59
REMARK   25  A    between atoms: _59  and  _60
REMARK   26  A    between atoms: _59  and  _62
REMARK   27  A    between atoms: _62  and  _63
REMARK   28  A    between atoms: _68  and  _70
REMARK   29  A    between atoms: _70  and  _71
REMARK   30  A    between atoms: _70  and  _73
REMARK   31  A    between atoms: _73  and  _74
REMARK   32  A    between atoms: _77  and  _79
REMARK   33  A    between atoms: _79  and  _80
REMARK   34  A    between atoms: _79  and  _82
REMARK   35  A    between atoms: _85  and  _87
REMARK   36  A    between atoms: _87  and  _88
REMARK   37  A    between atoms: _87  and  _90
REMARK   38  A    between atoms: _90  and  _91
REMARK   39  A    between atoms: _96  and  _97
REMARK   40  A    between atoms: _99  and  _101
REMARK   41  A    between atoms: _101  and  _102
REMARK   42  A    between atoms: _101  and  _104
REMARK   43  A    between atoms: _104  and  _105
REMARK   44  A    between atoms: _105  and  _106
REMARK   45  A    between atoms: _106  and  _107
REMARK   46  A    between atoms: _107  and  _108
REMARK   47  A    between atoms: _112  and  _114
REMARK   48  A    between atoms: _114  and  _115
REMARK   49  A    between atoms: _114  and  _117
REMARK   50  A    between atoms: _117  and  _118
REMARK   51  A    between atoms: _118  and  _119
REMARK   52  A    between atoms: _122  and  _124
REMARK   53  A    between atoms: _124  and  _125
REMARK   54  A    between atoms: _124  and  _127
REMARK   55  A    between atoms: _127  and  _128
REMARK   56  A    between atoms: _130  and  _132
REMARK   57  A    between atoms: _132  and  _133
REMARK   58  A    between atoms: _132  and  _135
REMARK   59  A    between atoms: _135  and  _136
REMARK   60  A    between atoms: _141  and  _142
REMARK   61  A    between atoms: _144  and  _146
REMARK   62  A    between atoms: _146  and  _147
REMARK   63  A    between atoms: _146  and  _149
REMARK   64  A    between atoms: _149  and  _150
REMARK   65  A    between atoms: _150  and  _151
REMARK   66  A    between atoms: _151  and  _152
REMARK   67  A    between atoms: _161  and  _163
REMARK   68  A    between atoms: _163  and  _164
REMARK   69  A    between atoms: _163  and  _166
REMARK   70  A    between atoms: _166  and  _167
REMARK   71  A    between atoms: _167  and  _168
REMARK   72  A    between atoms: _168  and  _169
REMARK   73  A    between atoms: _169  and  _170
REMARK   74  A    between atoms: _174  and  _176
REMARK   75  A    between atoms: _181  and  _182
REMARK   76  A    between atoms: _182  and  CA_267
REMARK   77  A    between atoms: _186  and  _189
REMARK   78  A    between atoms: _189  and  _190
REMARK   79  A    between atoms: _190  and  _191
REMARK   80  A    between atoms: _198  and  _199
REMARK   81  A    between atoms: _205  and  _207
REMARK   82  A    between atoms: _207  and  _208
REMARK   83  A    between atoms: _207  and  _210
REMARK   84  A    between atoms: _210  and  _211
REMARK   85  A    between atoms: _213  and  _215
REMARK   86  A    between atoms: _215  and  _216
REMARK   87  A    between atoms: _215  and  _218
REMARK   88  A    between atoms: _218  and  _219
REMARK   89  A    between atoms: _219  and  _220
REMARK   90  A    between atoms: _220  and  _221
REMARK   91  A    between atoms: _221  and  _222
REMARK   92  A    between atoms: _226  and  _228
REMARK   93  A    between atoms: _228  and  _229
REMARK   94  A    between atoms: _228  and  _231
REMARK   95  A    between atoms: _231  and  _232
REMARK   96  A    between atoms: _238  and  _240
REMARK   97  A    between atoms: _240  and  _241
REMARK   98  A    between atoms: _240  and  _243
REMARK   99  A    between atoms: _243  and  _244
REMARK  100  A    between atoms: _247  and  _249
REMARK  101  A    between atoms: _249  and  _250
REMARK  102  A    between atoms: _249  and  _252
REMARK  103  A    between atoms: _252  and  _253
REMARK  104  A    between atoms: _255  and  _257
REMARK  105  A    between atoms: _257  and  _258
REMARK  106  A    between atoms: _257  and  _260
REMARK  107  A    between atoms: _260  and  _261
REMARK  108  A    between atoms: _261  and  _262
REMARK  109  A    between atoms: _262  and  _263
REMARK  110  A    between atoms: _262  and  _264
REMARK  111  A    between atoms: _263  and  CA_267
REMARK                            x       y       z     vdW  Elec       q    Type
REMARK                         _______ _______ _______ _____ _____    ______ ____
ROOT
ATOM      1  O   HOH     1      14.620  10.724  60.929  0.00  0.00    +0.000 OA
ENDROOT
TORSDOF 0
REMARK  Name = ../refined-set-2016/3kqr/3kqr_pocket.pdb
REMARK  111 active torsions:
REMARK  status: ('A' for Active; 'I' for Inactive)
REMARK    1  A    between atoms: _1  and  _3
REMARK    2  A    between atoms: _3  and  _4
REMARK    3  A    between atoms: _7  and  _9
REMARK    4  A    between atoms: _9  and  _10
REMARK    5  A    between atoms: _9  and  _12
REMARK    6  A    between atoms: _12  and  _13
REMARK    7  A    between atoms: _18  and  _19
REMARK    8  A    between atoms: _21  and  _23
REMARK    9  A    between atoms: _23  and  _24
REMARK   10  A    between atoms: _23  and  _26
REMARK   11  A    between atoms: _26  and  _27
REMARK   12  A    between atoms: _29  and  _31
REMARK   13  A    between atoms: _31  and  _32
REMARK   14  A    between atoms: _31  and  _34
REMARK   15  A    between atoms: _34  and  _35
REMARK   16  A    between atoms: _37  and  _39
REMARK   17  A    between atoms: _39  and  _40
REMARK   18  A    between atoms: _39  and  _42
REMARK   19  A    between atoms: _42  and  _43
REMARK   20  A    between atoms: _48  and  _50
REMARK   21  A    between atoms: _50  and  _51
REMARK   22  A    between atoms: _50  and  _53
REMARK   23  A    between atoms: _53  and  _54
REMARK   24  A    between atoms: _57  and  _59
REMARK   25  A    between atoms: _59  and  _60
REMARK   26  A    between atoms: _59  and  _62
REMARK   27  A    between atoms: _62  and  _63
REMARK   28  A    between atoms: _68  and  _70
REMARK   29  A    between atoms: _70  and  _71
REMARK   30  A    between atoms: _70  and  _73
REMARK   31  A    between atoms: _73  and  _74
REMARK   32  A    between atoms: _77  and  _79
REMARK   33  A    between atoms: _79  and  _80
REMARK   34  A    between atoms: _79  and  _82
REMARK   35  A    between atoms: _85  and  _87
REMARK   36  A    between atoms: _87  and  _88
REMARK   37  A    between atoms: _87  and  _90
REMARK   38  A    between atoms: _90  and  _91
REMARK   39  A    between atoms: _96  and  _97
REMARK   40  A    between atoms: _99  and  _101
REMARK   41  A    between atoms: _101  and  _102
REMARK   42  A    between atoms: _101  and  _104
REMARK   43  A    between atoms: _104  and  _105
REMARK   44  A    between atoms: _105  and  _106
REMARK   45  A    between atoms: _106  and  _107
REMARK   46  A    between atoms: _107  and  _108
REMARK   47  A    between atoms: _112  and  _114
REMARK   48  A    between atoms: _114  and  _115
REMARK   49  A    between atoms: _114  and  _117
REMARK   50  A    between atoms: _117  and  _118
REMARK   51  A    between atoms: _118  and  _119
REMARK   52  A    between atoms: _122  and  _124
REMARK   53  A    between atoms: _124  and  _125
REMARK   54  A    between atoms: _124  and  _127
REMARK   55  A    between atoms: _127  and  _128
REMARK   56  A    between atoms: _130  and  _132
REMARK   57  A    between atoms: _132  and  _133
REMARK   58  A    between atoms: _132  and  _135
REMARK   59  A    between atoms: _135  and  _136
REMARK   60  A    between atoms: _141  and  _142
REMARK   61  A    between atoms: _144  and  _146
REMARK   62  A    between atoms: _146  and  _147
REMARK   63  A    between atoms: _146  and  _149
REMARK   64  A    between atoms: _149  and  _150
REMARK   65  A    between atoms: _150  and  _151
REMARK   66  A    between atoms: _151  and  _152
REMARK   67  A    between atoms: _161  and  _163
REMARK   68  A    between atoms: _163  and  _164
REMARK   69  A    between atoms: _163  and  _166
REMARK   70  A    between atoms: _166  and  _167
REMARK   71  A    between atoms: _167  and  _168
REMARK   72  A    between atoms: _168  and  _169
REMARK   73  A    between atoms: _169  and  _170
REMARK   74  A    between atoms: _174  and  _176
REMARK   75  A    between atoms: _181  and  _182
REMARK   76  A    between atoms: _182  and  CA_267
REMARK   77  A    between atoms: _186  and  _189
REMARK   78  A    between atoms: _189  and  _190
REMARK   79  A    between atoms: _190  and  _191
REMARK   80  A    between atoms: _198  and  _199
REMARK   81  A    between atoms: _205  and  _207
REMARK   82  A    between atoms: _207  and  _208
REMARK   83  A    between atoms: _207  and  _210
REMARK   84  A    between atoms: _210  and  _211
REMARK   85  A    between atoms: _213  and  _215
REMARK   86  A    between atoms: _215  and  _216
REMARK   87  A    between atoms: _215  and  _218
REMARK   88  A    between atoms: _218  and  _219
REMARK   89  A    between atoms: _219  and  _220
REMARK   90  A    between atoms: _220  and  _221
REMARK   91  A    between atoms: _221  and  _222
REMARK   92  A    between atoms: _226  and  _228
REMARK   93  A    between atoms: _228  and  _229
REMARK   94  A    between atoms: _228  and  _231
REMARK   95  A    between atoms: _231  and  _232
REMARK   96  A    between atoms: _238  and  _240
REMARK   97  A    between atoms: _240  and  _241
REMARK   98  A    between atoms: _240  and  _243
REMARK   99  A    between atoms: _243  and  _244
REMARK  100  A    between atoms: _247  and  _249
REMARK  101  A    between atoms: _249  and  _250
REMARK  102  A    between atoms: _249  and  _252
REMARK  103  A    between atoms: _252  and  _253
REMARK  104  A    between atoms: _255  and  _257
REMARK  105  A    between atoms: _257  and  _258
REMARK  106  A    between atoms: _257  and  _260
REMARK  107  A    between atoms: _260  and  _261
REMARK  108  A    between atoms: _261  and  _262
REMARK  109  A    between atoms: _262  and  _263
REMARK  110  A    between atoms: _262  and  _264
REMARK  111  A    between atoms: _263  and  CA_267
REMARK                            x       y       z     vdW  Elec       q    Type
REMARK                         _______ _______ _______ _____ _____    ______ ____
ROOT
ATOM      1  O   HOH     1      10.931  16.609  58.088  0.00  0.00    +0.000 OA
ENDROOT
TORSDOF 0
REMARK  Name = ../refined-set-2016/3kqr/3kqr_pocket.pdb
REMARK  111 active torsions:
REMARK  status: ('A' for Active; 'I' for Inactive)
REMARK    1  A    between atoms: _1  and  _3
REMARK    2  A    between atoms: _3  and  _4
REMARK    3  A    between atoms: _7  and  _9
REMARK    4  A    between atoms: _9  and  _10
REMARK    5  A    between atoms: _9  and  _12
REMARK    6  A    between atoms: _12  and  _13
REMARK    7  A    between atoms: _18  and  _19
REMARK    8  A    between atoms: _21  and  _23
REMARK    9  A    between atoms: _23  and  _24
REMARK   10  A    between atoms: _23  and  _26
REMARK   11  A    between atoms: _26  and  _27
REMARK   12  A    between atoms: _29  and  _31
REMARK   13  A    between atoms: _31  and  _32
REMARK   14  A    between atoms: _31  and  _34
REMARK   15  A    between atoms: _34  and  _35
REMARK   16  A    between atoms: _37  and  _39
REMARK   17  A    between atoms: _39  and  _40
REMARK   18  A    between atoms: _39  and  _42
REMARK   19  A    between atoms: _42  and  _43
REMARK   20  A    between atoms: _48  and  _50
REMARK   21  A    between atoms: _50  and  _51
REMARK   22  A    between atoms: _50  and  _53
REMARK   23  A    between atoms: _53  and  _54
REMARK   24  A    between atoms: _57  and  _59
REMARK   25  A    between atoms: _59  and  _60
REMARK   26  A    between atoms: _59  and  _62
REMARK   27  A    between atoms: _62  and  _63
REMARK   28  A    between atoms: _68  and  _70
REMARK   29  A    between atoms: _70  and  _71
REMARK   30  A    between atoms: _70  and  _73
REMARK   31  A    between atoms: _73  and  _74
REMARK   32  A    between atoms: _77  and  _79
REMARK   33  A    between atoms: _79  and  _80
REMARK   34  A    between atoms: _79  and  _82
REMARK   35  A    between atoms: _85  and  _87
REMARK   36  A    between atoms: _87  and  _88
REMARK   37  A    between atoms: _87  and  _90
REMARK   38  A    between atoms: _90  and  _91
REMARK   39  A    between atoms: _96  and  _97
REMARK   40  A    between atoms: _99  and  _101
REMARK   41  A    between atoms: _101  and  _102
REMARK   42  A    between atoms: _101  and  _104
REMARK   43  A    between atoms: _104  and  _105
REMARK   44  A    between atoms: _105  and  _106
REMARK   45  A    between atoms: _106  and  _107
REMARK   46  A    between atoms: _107  and  _108
REMARK   47  A    between atoms: _112  and  _114
REMARK   48  A    between atoms: _114  and  _115
REMARK   49  A    between atoms: _114  and  _117
REMARK   50  A    between atoms: _117  and  _118
REMARK   51  A    between atoms: _118  and  _119
REMARK   52  A    between atoms: _122  and  _124
REMARK   53  A    between atoms: _124  and  _125
REMARK   54  A    between atoms: _124  and  _127
REMARK   55  A    between atoms: _127  and  _128
REMARK   56  A    between atoms: _130  and  _132
REMARK   57  A    between atoms: _132  and  _133
REMARK   58  A    between atoms: _132  and  _135
REMARK   59  A    between atoms: _135  and  _136
REMARK   60  A    between atoms: _141  and  _142
REMARK   61  A    between atoms: _144  and  _146
REMARK   62  A    between atoms: _146  and  _147
REMARK   63  A    between atoms: _146  and  _149
REMARK   64  A    between atoms: _149  and  _150
REMARK   65  A    between atoms: _150  and  _151
REMARK   66  A    between atoms: _151  and  _152
REMARK   67  A    between atoms: _161  and  _163
REMARK   68  A    between atoms: _163  and  _164
REMARK   69  A    between atoms: _163  and  _166
REMARK   70  A    between atoms: _166  and  _167
REMARK   71  A    between atoms: _167  and  _168
REMARK   72  A    between atoms: _168  and  _169
REMARK   73  A    between atoms: _169  and  _170
REMARK   74  A    between atoms: _174  and  _176
REMARK   75  A    between atoms: _181  and  _182
REMARK   76  A    between atoms: _182  and  CA_267
REMARK   77  A    between atoms: _186  and  _189
REMARK   78  A    between atoms: _189  and  _190
REMARK   79  A    between atoms: _190  and  _191
REMARK   80  A    between atoms: _198  and  _199
REMARK   81  A    between atoms: _205  and  _207
REMARK   82  A    between atoms: _207  and  _208
REMARK   83  A    between atoms: _207  and  _210
REMARK   84  A    between atoms: _210  and  _211
REMARK   85  A    between atoms: _213  and  _215
REMARK   86  A    between atoms: _215  and  _216
REMARK   87  A    between atoms: _215  and  _218
REMARK   88  A    between atoms: _218  and  _219
REMARK   89  A    between atoms: _219  and  _220
REMARK   90  A    between atoms: _220  and  _221
REMARK   91  A    between atoms: _221  and  _222
REMARK   92  A    between atoms: _226  and  _228
REMARK   93  A    between atoms: _228  and  _229
REMARK   94  A    between atoms: _228  and  _231
REMARK   95  A    between atoms: _231  and  _232
REMARK   96  A    between atoms: _238  and  _240
REMARK   97  A    between atoms: _240  and  _241
REMARK   98  A    between atoms: _240  and  _243
REMARK   99  A    between atoms: _243  and  _244
REMARK  100  A    between atoms: _247  and  _249
REMARK  101  A    between atoms: _249  and  _250
REMARK  102  A    between atoms: _249  and  _252
REMARK  103  A    between atoms: _252  and  _253
REMARK  104  A    between atoms: _255  and  _257
REMARK  105  A    between atoms: _257  and  _258
REMARK  106  A    between atoms: _257  and  _260
REMARK  107  A    between atoms: _260  and  _261
REMARK  108  A    between atoms: _261  and  _262
REMARK  109  A    between atoms: _262  and  _263
REMARK  110  A    between atoms: _262  and  _264
REMARK  111  A    between atoms: _263  and  CA_267
REMARK                            x       y       z     vdW  Elec       q    Type
REMARK                         _______ _______ _______ _____ _____    ______ ____
ROOT
ATOM      1  O   HOH     1      12.993  18.920  56.297  0.00  0.00    +0.000 OA
ENDROOT
TORSDOF 0
REMARK  Name = ../refined-set-2016/3kqr/3kqr_pocket.pdb
REMARK  111 active torsions:
REMARK  status: ('A' for Active; 'I' for Inactive)
REMARK    1  A    between atoms: _1  and  _3
REMARK    2  A    between atoms: _3  and  _4
REMARK    3  A    between atoms: _7  and  _9
REMARK    4  A    between atoms: _9  and  _10
REMARK    5  A    between atoms: _9  and  _12
REMARK    6  A    between atoms: _12  and  _13
REMARK    7  A    between atoms: _18  and  _19
REMARK    8  A    between atoms: _21  and  _23
REMARK    9  A    between atoms: _23  and  _24
REMARK   10  A    between atoms: _23  and  _26
REMARK   11  A    between atoms: _26  and  _27
REMARK   12  A    between atoms: _29  and  _31
REMARK   13  A    between atoms: _31  and  _32
REMARK   14  A    between atoms: _31  and  _34
REMARK   15  A    between atoms: _34  and  _35
REMARK   16  A    between atoms: _37  and  _39
REMARK   17  A    between atoms: _39  and  _40
REMARK   18  A    between atoms: _39  and  _42
REMARK   19  A    between atoms: _42  and  _43
REMARK   20  A    between atoms: _48  and  _50
REMARK   21  A    between atoms: _50  and  _51
REMARK   22  A    between atoms: _50  and  _53
REMARK   23  A    between atoms: _53  and  _54
REMARK   24  A    between atoms: _57  and  _59
REMARK   25  A    between atoms: _59  and  _60
REMARK   26  A    between atoms: _59  and  _62
REMARK   27  A    between atoms: _62  and  _63
REMARK   28  A    between atoms: _68  and  _70
REMARK   29  A    between atoms: _70  and  _71
REMARK   30  A    between atoms: _70  and  _73
REMARK   31  A    between atoms: _73  and  _74
REMARK   32  A    between atoms: _77  and  _79
REMARK   33  A    between atoms: _79  and  _80
REMARK   34  A    between atoms: _79  and  _82
REMARK   35  A    between atoms: _85  and  _87
REMARK   36  A    between atoms: _87  and  _88
REMARK   37  A    between atoms: _87  and  _90
REMARK   38  A    between atoms: _90  and  _91
REMARK   39  A    between atoms: _96  and  _97
REMARK   40  A    between atoms: _99  and  _101
REMARK   41  A    between atoms: _101  and  _102
REMARK   42  A    between atoms: _101  and  _104
REMARK   43  A    between atoms: _104  and  _105
REMARK   44  A    between atoms: _105  and  _106
REMARK   45  A    between atoms: _106  and  _107
REMARK   46  A    between atoms: _107  and  _108
REMARK   47  A    between atoms: _112  and  _114
REMARK   48  A    between atoms: _114  and  _115
REMARK   49  A    between atoms: _114  and  _117
REMARK   50  A    between atoms: _117  and  _118
REMARK   51  A    between atoms: _118  and  _119
REMARK   52  A    between atoms: _122  and  _124
REMARK   53  A    between atoms: _124  and  _125
REMARK   54  A    between atoms: _124  and  _127
REMARK   55  A    between atoms: _127  and  _128
REMARK   56  A    between atoms: _130  and  _132
REMARK   57  A    between atoms: _132  and  _133
REMARK   58  A    between atoms: _132  and  _135
REMARK   59  A    between atoms: _135  and  _136
REMARK   60  A    between atoms: _141  and  _142
REMARK   61  A    between atoms: _144  and  _146
REMARK   62  A    between atoms: _146  and  _147
REMARK   63  A    between atoms: _146  and  _149
REMARK   64  A    between atoms: _149  and  _150
REMARK   65  A    between atoms: _150  and  _151
REMARK   66  A    between atoms: _151  and  _152
REMARK   67  A    between atoms: _161  and  _163
REMARK   68  A    between atoms: _163  and  _164
REMARK   69  A    between atoms: _163  and  _166
REMARK   70  A    between atoms: _166  and  _167
REMARK   71  A    between atoms: _167  and  _168
REMARK   72  A    between atoms: _168  and  _169
REMARK   73  A    between atoms: _169  and  _170
REMARK   74  A    between atoms: _174  and  _176
REMARK   75  A    between atoms: _181  and  _182
REMARK   76  A    between atoms: _182  and  CA_267
REMARK   77  A    between atoms: _186  and  _189
REMARK   78  A    between atoms: _189  and  _190
REMARK   79  A    between atoms: _190  and  _191
REMARK   80  A    between atoms: _198  and  _199
REMARK   81  A    between atoms: _205  and  _207
REMARK   82  A    between atoms: _207  and  _208
REMARK   83  A    between atoms: _207  and  _210
REMARK   84  A    between atoms: _210  and  _211
REMARK   85  A    between atoms: _213  and  _215
REMARK   86  A    between atoms: _215  and  _216
REMARK   87  A    between atoms: _215  and  _218
REMARK   88  A    between atoms: _218  and  _219
REMARK   89  A    between atoms: _219  and  _220
REMARK   90  A    between atoms: _220  and  _221
REMARK   91  A    between atoms: _221  and  _222
REMARK   92  A    between atoms: _226  and  _228
REMARK   93  A    between atoms: _228  and  _229
REMARK   94  A    between atoms: _228  and  _231
REMARK   95  A    between atoms: _231  and  _232
REMARK   96  A    between atoms: _238  and  _240
REMARK   97  A    between atoms: _240  and  _241
REMARK   98  A    between atoms: _240  and  _243
REMARK   99  A    between atoms: _243  and  _244
REMARK  100  A    between atoms: _247  and  _249
REMARK  101  A    between atoms: _249  and  _250
REMARK  102  A    between atoms: _249  and  _252
REMARK  103  A    between atoms: _252  and  _253
REMARK  104  A    between atoms: _255  and  _257
REMARK  105  A    between atoms: _257  and  _258
REMARK  106  A    between atoms: _257  and  _260
REMARK  107  A    between atoms: _260  and  _261
REMARK  108  A    between atoms: _261  and  _262
REMARK  109  A    between atoms: _262  and  _263
REMARK  110  A    between atoms: _262  and  _264
REMARK  111  A    between atoms: _263  and  CA_267
REMARK                            x       y       z     vdW  Elec       q    Type
REMARK                         _______ _______ _______ _____ _____    ______ ____
ROOT
ATOM      1  O   HOH     1       8.377  14.121  55.692  0.00  0.00    +0.000 OA
ENDROOT
TORSDOF 0
REMARK  Name = ../refined-set-2016/3kqr/3kqr_pocket.pdb
REMARK  111 active torsions:
REMARK  status: ('A' for Active; 'I' for Inactive)
REMARK    1  A    between atoms: _1  and  _3
REMARK    2  A    between atoms: _3  and  _4
REMARK    3  A    between atoms: _7  and  _9
REMARK    4  A    between atoms: _9  and  _10
REMARK    5  A    between atoms: _9  and  _12
REMARK    6  A    between atoms: _12  and  _13
REMARK    7  A    between atoms: _18  and  _19
REMARK    8  A    between atoms: _21  and  _23
REMARK    9  A    between atoms: _23  and  _24
REMARK   10  A    between atoms: _23  and  _26
REMARK   11  A    between atoms: _26  and  _27
REMARK   12  A    between atoms: _29  and  _31
REMARK   13  A    between atoms: _31  and  _32
REMARK   14  A    between atoms: _31  and  _34
REMARK   15  A    between atoms: _34  and  _35
REMARK   16  A    between atoms: _37  and  _39
REMARK   17  A    between atoms: _39  and  _40
REMARK   18  A    between atoms: _39  and  _42
REMARK   19  A    between atoms: _42  and  _43
REMARK   20  A    between atoms: _48  and  _50
REMARK   21  A    between atoms: _50  and  _51
REMARK   22  A    between atoms: _50  and  _53
REMARK   23  A    between atoms: _53  and  _54
REMARK   24  A    between atoms: _57  and  _59
REMARK   25  A    between atoms: _59  and  _60
REMARK   26  A    between atoms: _59  and  _62
REMARK   27  A    between atoms: _62  and  _63
REMARK   28  A    between atoms: _68  and  _70
REMARK   29  A    between atoms: _70  and  _71
REMARK   30  A    between atoms: _70  and  _73
REMARK   31  A    between atoms: _73  and  _74
REMARK   32  A    between atoms: _77  and  _79
REMARK   33  A    between atoms: _79  and  _80
REMARK   34  A    between atoms: _79  and  _82
REMARK   35  A    between atoms: _85  and  _87
REMARK   36  A    between atoms: _87  and  _88
REMARK   37  A    between atoms: _87  and  _90
REMARK   38  A    between atoms: _90  and  _91
REMARK   39  A    between atoms: _96  and  _97
REMARK   40  A    between atoms: _99  and  _101
REMARK   41  A    between atoms: _101  and  _102
REMARK   42  A    between atoms: _101  and  _104
REMARK   43  A    between atoms: _104  and  _105
REMARK   44  A    between atoms: _105  and  _106
REMARK   45  A    between atoms: _106  and  _107
REMARK   46  A    between atoms: _107  and  _108
REMARK   47  A    between atoms: _112  and  _114
REMARK   48  A    between atoms: _114  and  _115
REMARK   49  A    between atoms: _114  and  _117
REMARK   50  A    between atoms: _117  and  _118
REMARK   51  A    between atoms: _118  and  _119
REMARK   52  A    between atoms: _122  and  _124
REMARK   53  A    between atoms: _124  and  _125
REMARK   54  A    between atoms: _124  and  _127
REMARK   55  A    between atoms: _127  and  _128
REMARK   56  A    between atoms: _130  and  _132
REMARK   57  A    between atoms: _132  and  _133
REMARK   58  A    between atoms: _132  and  _135
REMARK   59  A    between atoms: _135  and  _136
REMARK   60  A    between atoms: _141  and  _142
REMARK   61  A    between atoms: _144  and  _146
REMARK   62  A    between atoms: _146  and  _147
REMARK   63  A    between atoms: _146  and  _149
REMARK   64  A    between atoms: _149  and  _150
REMARK   65  A    between atoms: _150  and  _151
REMARK   66  A    between atoms: _151  and  _152
REMARK   67  A    between atoms: _161  and  _163
REMARK   68  A    between atoms: _163  and  _164
REMARK   69  A    between atoms: _163  and  _166
REMARK   70  A    between atoms: _166  and  _167
REMARK   71  A    between atoms: _167  and  _168
REMARK   72  A    between atoms: _168  and  _169
REMARK   73  A    between atoms: _169  and  _170
REMARK   74  A    between atoms: _174  and  _176
REMARK   75  A    between atoms: _181  and  _182
REMARK   76  A    between atoms: _182  and  CA_267
REMARK   77  A    between atoms: _186  and  _189
REMARK   78  A    between atoms: _189  and  _190
REMARK   79  A    between atoms: _190  and  _191
REMARK   80  A    between atoms: _198  and  _199
REMARK   81  A    between atoms: _205  and  _207
REMARK   82  A    between atoms: _207  and  _208
REMARK   83  A    between atoms: _207  and  _210
REMARK   84  A    between atoms: _210  and  _211
REMARK   85  A    between atoms: _213  and  _215
REMARK   86  A    between atoms: _215  and  _216
REMARK   87  A    between atoms: _215  and  _218
REMARK   88  A    between atoms: _218  and  _219
REMARK   89  A    between atoms: _219  and  _220
REMARK   90  A    between atoms: _220  and  _221
REMARK   91  A    between atoms: _221  and  _222
REMARK   92  A    between atoms: _226  and  _228
REMARK   93  A    between atoms: _228  and  _229
REMARK   94  A    between atoms: _228  and  _231
REMARK   95  A    between atoms: _231  and  _232
REMARK   96  A    between atoms: _238  and  _240
REMARK   97  A    between atoms: _240  and  _241
REMARK   98  A    between atoms: _240  and  _243
REMARK   99  A    between atoms: _243  and  _244
REMARK  100  A    between atoms: _247  and  _249
REMARK  101  A    between atoms: _249  and  _250
REMARK  102  A    between atoms: _249  and  _252
REMARK  103  A    between atoms: _252  and  _253
REMARK  104  A    between atoms: _255  and  _257
REMARK  105  A    between atoms: _257  and  _258
REMARK  106  A    between atoms: _257  and  _260
REMARK  107  A    between atoms: _260  and  _261
REMARK  108  A    between atoms: _261  and  _262
REMARK  109  A    between atoms: _262  and  _263
REMARK  110  A    between atoms: _262  and  _264
REMARK  111  A    between atoms: _263  and  CA_267
REMARK                            x       y       z     vdW  Elec       q    Type
REMARK                         _______ _______ _______ _____ _____    ______ ____
ROOT
ATOM      1  O   HOH     1      15.975  18.579  54.485  0.00  0.00    +0.000 OA
ENDROOT
TORSDOF 0
REMARK  Name = ../refined-set-2016/3kqr/3kqr_pocket.pdb
REMARK  111 active torsions:
REMARK  status: ('A' for Active; 'I' for Inactive)
REMARK    1  A    between atoms: _1  and  _3
REMARK    2  A    between atoms: _3  and  _4
REMARK    3  A    between atoms: _7  and  _9
REMARK    4  A    between atoms: _9  and  _10
REMARK    5  A    between atoms: _9  and  _12
REMARK    6  A    between atoms: _12  and  _13
REMARK    7  A    between atoms: _18  and  _19
REMARK    8  A    between atoms: _21  and  _23
REMARK    9  A    between atoms: _23  and  _24
REMARK   10  A    between atoms: _23  and  _26
REMARK   11  A    between atoms: _26  and  _27
REMARK   12  A    between atoms: _29  and  _31
REMARK   13  A    between atoms: _31  and  _32
REMARK   14  A    between atoms: _31  and  _34
REMARK   15  A    between atoms: _34  and  _35
REMARK   16  A    between atoms: _37  and  _39
REMARK   17  A    between atoms: _39  and  _40
REMARK   18  A    between atoms: _39  and  _42
REMARK   19  A    between atoms: _42  and  _43
REMARK   20  A    between atoms: _48  and  _50
REMARK   21  A    between atoms: _50  and  _51
REMARK   22  A    between atoms: _50  and  _53
REMARK   23  A    between atoms: _53  and  _54
REMARK   24  A    between atoms: _57  and  _59
REMARK   25  A    between atoms: _59  and  _60
REMARK   26  A    between atoms: _59  and  _62
REMARK   27  A    between atoms: _62  and  _63
REMARK   28  A    between atoms: _68  and  _70
REMARK   29  A    between atoms: _70  and  _71
REMARK   30  A    between atoms: _70  and  _73
REMARK   31  A    between atoms: _73  and  _74
REMARK   32  A    between atoms: _77  and  _79
REMARK   33  A    between atoms: _79  and  _80
REMARK   34  A    between atoms: _79  and  _82
REMARK   35  A    between atoms: _85  and  _87
REMARK   36  A    between atoms: _87  and  _88
REMARK   37  A    between atoms: _87  and  _90
REMARK   38  A    between atoms: _90  and  _91
REMARK   39  A    between atoms: _96  and  _97
REMARK   40  A    between atoms: _99  and  _101
REMARK   41  A    between atoms: _101  and  _102
REMARK   42  A    between atoms: _101  and  _104
REMARK   43  A    between atoms: _104  and  _105
REMARK   44  A    between atoms: _105  and  _106
REMARK   45  A    between atoms: _106  and  _107
REMARK   46  A    between atoms: _107  and  _108
REMARK   47  A    between atoms: _112  and  _114
REMARK   48  A    between atoms: _114  and  _115
REMARK   49  A    between atoms: _114  and  _117
REMARK   50  A    between atoms: _117  and  _118
REMARK   51  A    between atoms: _118  and  _119
REMARK   52  A    between atoms: _122  and  _124
REMARK   53  A    between atoms: _124  and  _125
REMARK   54  A    between atoms: _124  and  _127
REMARK   55  A    between atoms: _127  and  _128
REMARK   56  A    between atoms: _130  and  _132
REMARK   57  A    between atoms: _132  and  _133
REMARK   58  A    between atoms: _132  and  _135
REMARK   59  A    between atoms: _135  and  _136
REMARK   60  A    between atoms: _141  and  _142
REMARK   61  A    between atoms: _144  and  _146
REMARK   62  A    between atoms: _146  and  _147
REMARK   63  A    between atoms: _146  and  _149
REMARK   64  A    between atoms: _149  and  _150
REMARK   65  A    between atoms: _150  and  _151
REMARK   66  A    between atoms: _151  and  _152
REMARK   67  A    between atoms: _161  and  _163
REMARK   68  A    between atoms: _163  and  _164
REMARK   69  A    between atoms: _163  and  _166
REMARK   70  A    between atoms: _166  and  _167
REMARK   71  A    between atoms: _167  and  _168
REMARK   72  A    between atoms: _168  and  _169
REMARK   73  A    between atoms: _169  and  _170
REMARK   74  A    between atoms: _174  and  _176
REMARK   75  A    between atoms: _181  and  _182
REMARK   76  A    between atoms: _182  and  CA_267
REMARK   77  A    between atoms: _186  and  _189
REMARK   78  A    between atoms: _189  and  _190
REMARK   79  A    between atoms: _190  and  _191
REMARK   80  A    between atoms: _198  and  _199
REMARK   81  A    between atoms: _205  and  _207
REMARK   82  A    between atoms: _207  and  _208
REMARK   83  A    between atoms: _207  and  _210
REMARK   84  A    between atoms: _210  and  _211
REMARK   85  A    between atoms: _213  and  _215
REMARK   86  A    between atoms: _215  and  _216
REMARK   87  A    between atoms: _215  and  _218
REMARK   88  A    between atoms: _218  and  _219
REMARK   89  A    between atoms: _219  and  _220
REMARK   90  A    between atoms: _220  and  _221
REMARK   91  A    between atoms: _221  and  _222
REMARK   92  A    between atoms: _226  and  _228
REMARK   93  A    between atoms: _228  and  _229
REMARK   94  A    between atoms: _228  and  _231
REMARK   95  A    between atoms: _231  and  _232
REMARK   96  A    between atoms: _238  and  _240
REMARK   97  A    between atoms: _240  and  _241
REMARK   98  A    between atoms: _240  and  _243
REMARK   99  A    between atoms: _243  and  _244
REMARK  100  A    between atoms: _247  and  _249
REMARK  101  A    between atoms: _249  and  _250
REMARK  102  A    between atoms: _249  and  _252
REMARK  103  A    between atoms: _252  and  _253
REMARK  104  A    between atoms: _255  and  _257
REMARK  105  A    between atoms: _257  and  _258
REMARK  106  A    between atoms: _257  and  _260
REMARK  107  A    between atoms: _260  and  _261
REMARK  108  A    between atoms: _261  and  _262
REMARK  109  A    between atoms: _262  and  _263
REMARK  110  A    between atoms: _262  and  _264
REMARK  111  A    between atoms: _263  and  CA_267
REMARK                            x       y       z     vdW  Elec       q    Type
REMARK                         _______ _______ _______ _____ _____    ______ ____
ROOT
ATOM      1  O   HOH     1      20.216  14.181  51.696  0.00  0.00    +0.000 OA
ENDROOT
TORSDOF 0
REMARK  Name = ../refined-set-2016/3kqr/3kqr_pocket.pdb
REMARK  111 active torsions:
REMARK  status: ('A' for Active; 'I' for Inactive)
REMARK    1  A    between atoms: _1  and  _3
REMARK    2  A    between atoms: _3  and  _4
REMARK    3  A    between atoms: _7  and  _9
REMARK    4  A    between atoms: _9  and  _10
REMARK    5  A    between atoms: _9  and  _12
REMARK    6  A    between atoms: _12  and  _13
REMARK    7  A    between atoms: _18  and  _19
REMARK    8  A    between atoms: _21  and  _23
REMARK    9  A    between atoms: _23  and  _24
REMARK   10  A    between atoms: _23  and  _26
REMARK   11  A    between atoms: _26  and  _27
REMARK   12  A    between atoms: _29  and  _31
REMARK   13  A    between atoms: _31  and  _32
REMARK   14  A    between atoms: _31  and  _34
REMARK   15  A    between atoms: _34  and  _35
REMARK   16  A    between atoms: _37  and  _39
REMARK   17  A    between atoms: _39  and  _40
REMARK   18  A    between atoms: _39  and  _42
REMARK   19  A    between atoms: _42  and  _43
REMARK   20  A    between atoms: _48  and  _50
REMARK   21  A    between atoms: _50  and  _51
REMARK   22  A    between atoms: _50  and  _53
REMARK   23  A    between atoms: _53  and  _54
REMARK   24  A    between atoms: _57  and  _59
REMARK   25  A    between atoms: _59  and  _60
REMARK   26  A    between atoms: _59  and  _62
REMARK   27  A    between atoms: _62  and  _63
REMARK   28  A    between atoms: _68  and  _70
REMARK   29  A    between atoms: _70  and  _71
REMARK   30  A    between atoms: _70  and  _73
REMARK   31  A    between atoms: _73  and  _74
REMARK   32  A    between atoms: _77  and  _79
REMARK   33  A    between atoms: _79  and  _80
REMARK   34  A    between atoms: _79  and  _82
REMARK   35  A    between atoms: _85  and  _87
REMARK   36  A    between atoms: _87  and  _88
REMARK   37  A    between atoms: _87  and  _90
REMARK   38  A    between atoms: _90  and  _91
REMARK   39  A    between atoms: _96  and  _97
REMARK   40  A    between atoms: _99  and  _101
REMARK   41  A    between atoms: _101  and  _102
REMARK   42  A    between atoms: _101  and  _104
REMARK   43  A    between atoms: _104  and  _105
REMARK   44  A    between atoms: _105  and  _106
REMARK   45  A    between atoms: _106  and  _107
REMARK   46  A    between atoms: _107  and  _108
REMARK   47  A    between atoms: _112  and  _114
REMARK   48  A    between atoms: _114  and  _115
REMARK   49  A    between atoms: _114  and  _117
REMARK   50  A    between atoms: _117  and  _118
REMARK   51  A    between atoms: _118  and  _119
REMARK   52  A    between atoms: _122  and  _124
REMARK   53  A    between atoms: _124  and  _125
REMARK   54  A    between atoms: _124  and  _127
REMARK   55  A    between atoms: _127  and  _128
REMARK   56  A    between atoms: _130  and  _132
REMARK   57  A    between atoms: _132  and  _133
REMARK   58  A    between atoms: _132  and  _135
REMARK   59  A    between atoms: _135  and  _136
REMARK   60  A    between atoms: _141  and  _142
REMARK   61  A    between atoms: _144  and  _146
REMARK   62  A    between atoms: _146  and  _147
REMARK   63  A    between atoms: _146  and  _149
REMARK   64  A    between atoms: _149  and  _150
REMARK   65  A    between atoms: _150  and  _151
REMARK   66  A    between atoms: _151  and  _152
REMARK   67  A    between atoms: _161  and  _163
REMARK   68  A    between atoms: _163  and  _164
REMARK   69  A    between atoms: _163  and  _166
REMARK   70  A    between atoms: _166  and  _167
REMARK   71  A    between atoms: _167  and  _168
REMARK   72  A    between atoms: _168  and  _169
REMARK   73  A    between atoms: _169  and  _170
REMARK   74  A    between atoms: _174  and  _176
REMARK   75  A    between atoms: _181  and  _182
REMARK   76  A    between atoms: _182  and  CA_267
REMARK   77  A    between atoms: _186  and  _189
REMARK   78  A    between atoms: _189  and  _190
REMARK   79  A    between atoms: _190  and  _191
REMARK   80  A    between atoms: _198  and  _199
REMARK   81  A    between atoms: _205  and  _207
REMARK   82  A    between atoms: _207  and  _208
REMARK   83  A    between atoms: _207  and  _210
REMARK   84  A    between atoms: _210  and  _211
REMARK   85  A    between atoms: _213  and  _215
REMARK   86  A    between atoms: _215  and  _216
REMARK   87  A    between atoms: _215  and  _218
REMARK   88  A    between atoms: _218  and  _219
REMARK   89  A    between atoms: _219  and  _220
REMARK   90  A    between atoms: _220  and  _221
REMARK   91  A    between atoms: _221  and  _222
REMARK   92  A    between atoms: _226  and  _228
REMARK   93  A    between atoms: _228  and  _229
REMARK   94  A    between atoms: _228  and  _231
REMARK   95  A    between atoms: _231  and  _232
REMARK   96  A    between atoms: _238  and  _240
REMARK   97  A    between atoms: _240  and  _241
REMARK   98  A    between atoms: _240  and  _243
REMARK   99  A    between atoms: _243  and  _244
REMARK  100  A    between atoms: _247  and  _249
REMARK  101  A    between atoms: _249  and  _250
REMARK  102  A    between atoms: _249  and  _252
REMARK  103  A    between atoms: _252  and  _253
REMARK  104  A    between atoms: _255  and  _257
REMARK  105  A    between atoms: _257  and  _258
REMARK  106  A    between atoms: _257  and  _260
REMARK  107  A    between atoms: _260  and  _261
REMARK  108  A    between atoms: _261  and  _262
REMARK  109  A    between atoms: _262  and  _263
REMARK  110  A    between atoms: _262  and  _264
REMARK  111  A    between atoms: _263  and  CA_267
REMARK                            x       y       z     vdW  Elec       q    Type
REMARK                         _______ _______ _______ _____ _____    ______ ____
ROOT
ATOM      1  O   HOH     1      21.755  14.889  59.747  0.00  0.00    +0.000 OA
ENDROOT
TORSDOF 0
REMARK  Name = ../refined-set-2016/3kqr/3kqr_pocket.pdb
REMARK  111 active torsions:
REMARK  status: ('A' for Active; 'I' for Inactive)
REMARK    1  A    between atoms: _1  and  _3
REMARK    2  A    between atoms: _3  and  _4
REMARK    3  A    between atoms: _7  and  _9
REMARK    4  A    between atoms: _9  and  _10
REMARK    5  A    between atoms: _9  and  _12
REMARK    6  A    between atoms: _12  and  _13
REMARK    7  A    between atoms: _18  and  _19
REMARK    8  A    between atoms: _21  and  _23
REMARK    9  A    between atoms: _23  and  _24
REMARK   10  A    between atoms: _23  and  _26
REMARK   11  A    between atoms: _26  and  _27
REMARK   12  A    between atoms: _29  and  _31
REMARK   13  A    between atoms: _31  and  _32
REMARK   14  A    between atoms: _31  and  _34
REMARK   15  A    between atoms: _34  and  _35
REMARK   16  A    between atoms: _37  and  _39
REMARK   17  A    between atoms: _39  and  _40
REMARK   18  A    between atoms: _39  and  _42
REMARK   19  A    between atoms: _42  and  _43
REMARK   20  A    between atoms: _48  and  _50
REMARK   21  A    between atoms: _50  and  _51
REMARK   22  A    between atoms: _50  and  _53
REMARK   23  A    between atoms: _53  and  _54
REMARK   24  A    between atoms: _57  and  _59
REMARK   25  A    between atoms: _59  and  _60
REMARK   26  A    between atoms: _59  and  _62
REMARK   27  A    between atoms: _62  and  _63
REMARK   28  A    between atoms: _68  and  _70
REMARK   29  A    between atoms: _70  and  _71
REMARK   30  A    between atoms: _70  and  _73
REMARK   31  A    between atoms: _73  and  _74
REMARK   32  A    between atoms: _77  and  _79
REMARK   33  A    between atoms: _79  and  _80
REMARK   34  A    between atoms: _79  and  _82
REMARK   35  A    between atoms: _85  and  _87
REMARK   36  A    between atoms: _87  and  _88
REMARK   37  A    between atoms: _87  and  _90
REMARK   38  A    between atoms: _90  and  _91
REMARK   39  A    between atoms: _96  and  _97
REMARK   40  A    between atoms: _99  and  _101
REMARK   41  A    between atoms: _101  and  _102
REMARK   42  A    between atoms: _101  and  _104
REMARK   43  A    between atoms: _104  and  _105
REMARK   44  A    between atoms: _105  and  _106
REMARK   45  A    between atoms: _106  and  _107
REMARK   46  A    between atoms: _107  and  _108
REMARK   47  A    between atoms: _112  and  _114
REMARK   48  A    between atoms: _114  and  _115
REMARK   49  A    between atoms: _114  and  _117
REMARK   50  A    between atoms: _117  and  _118
REMARK   51  A    between atoms: _118  and  _119
REMARK   52  A    between atoms: _122  and  _124
REMARK   53  A    between atoms: _124  and  _125
REMARK   54  A    between atoms: _124  and  _127
REMARK   55  A    between atoms: _127  and  _128
REMARK   56  A    between atoms: _130  and  _132
REMARK   57  A    between atoms: _132  and  _133
REMARK   58  A    between atoms: _132  and  _135
REMARK   59  A    between atoms: _135  and  _136
REMARK   60  A    between atoms: _141  and  _142
REMARK   61  A    between atoms: _144  and  _146
REMARK   62  A    between atoms: _146  and  _147
REMARK   63  A    between atoms: _146  and  _149
REMARK   64  A    between atoms: _149  and  _150
REMARK   65  A    between atoms: _150  and  _151
REMARK   66  A    between atoms: _151  and  _152
REMARK   67  A    between atoms: _161  and  _163
REMARK   68  A    between atoms: _163  and  _164
REMARK   69  A    between atoms: _163  and  _166
REMARK   70  A    between atoms: _166  and  _167
REMARK   71  A    between atoms: _167  and  _168
REMARK   72  A    between atoms: _168  and  _169
REMARK   73  A    between atoms: _169  and  _170
REMARK   74  A    between atoms: _174  and  _176
REMARK   75  A    between atoms: _181  and  _182
REMARK   76  A    between atoms: _182  and  CA_267
REMARK   77  A    between atoms: _186  and  _189
REMARK   78  A    between atoms: _189  and  _190
REMARK   79  A    between atoms: _190  and  _191
REMARK   80  A    between atoms: _198  and  _199
REMARK   81  A    between atoms: _205  and  _207
REMARK   82  A    between atoms: _207  and  _208
REMARK   83  A    between atoms: _207  and  _210
REMARK   84  A    between atoms: _210  and  _211
REMARK   85  A    between atoms: _213  and  _215
REMARK   86  A    between atoms: _215  and  _216
REMARK   87  A    between atoms: _215  and  _218
REMARK   88  A    between atoms: _218  and  _219
REMARK   89  A    between atoms: _219  and  _220
REMARK   90  A    between atoms: _220  and  _221
REMARK   91  A    between atoms: _221  and  _222
REMARK   92  A    between atoms: _226  and  _228
REMARK   93  A    between atoms: _228  and  _229
REMARK   94  A    between atoms: _228  and  _231
REMARK   95  A    between atoms: _231  and  _232
REMARK   96  A    between atoms: _238  and  _240
REMARK   97  A    between atoms: _240  and  _241
REMARK   98  A    between atoms: _240  and  _243
REMARK   99  A    between atoms: _243  and  _244
REMARK  100  A    between atoms: _247  and  _249
REMARK  101  A    between atoms: _249  and  _250
REMARK  102  A    between atoms: _249  and  _252
REMARK  103  A    between atoms: _252  and  _253
REMARK  104  A    between atoms: _255  and  _257
REMARK  105  A    between atoms: _257  and  _258
REMARK  106  A    between atoms: _257  and  _260
REMARK  107  A    between atoms: _260  and  _261
REMARK  108  A    between atoms: _261  and  _262
REMARK  109  A    between atoms: _262  and  _263
REMARK  110  A    between atoms: _262  and  _264
REMARK  111  A    between atoms: _263  and  CA_267
REMARK                            x       y       z     vdW  Elec       q    Type
REMARK                         _______ _______ _______ _____ _____    ______ ____
ROOT
ATOM      1  O   HOH     1      18.360  17.890  60.040  0.00  0.00    +0.000 OA
ENDROOT
TORSDOF 0
REMARK  Name = ../refined-set-2016/3kqr/3kqr_pocket.pdb
REMARK  111 active torsions:
REMARK  status: ('A' for Active; 'I' for Inactive)
REMARK    1  A    between atoms: _1  and  _3
REMARK    2  A    between atoms: _3  and  _4
REMARK    3  A    between atoms: _7  and  _9
REMARK    4  A    between atoms: _9  and  _10
REMARK    5  A    between atoms: _9  and  _12
REMARK    6  A    between atoms: _12  and  _13
REMARK    7  A    between atoms: _18  and  _19
REMARK    8  A    between atoms: _21  and  _23
REMARK    9  A    between atoms: _23  and  _24
REMARK   10  A    between atoms: _23  and  _26
REMARK   11  A    between atoms: _26  and  _27
REMARK   12  A    between atoms: _29  and  _31
REMARK   13  A    between atoms: _31  and  _32
REMARK   14  A    between atoms: _31  and  _34
REMARK   15  A    between atoms: _34  and  _35
REMARK   16  A    between atoms: _37  and  _39
REMARK   17  A    between atoms: _39  and  _40
REMARK   18  A    between atoms: _39  and  _42
REMARK   19  A    between atoms: _42  and  _43
REMARK   20  A    between atoms: _48  and  _50
REMARK   21  A    between atoms: _50  and  _51
REMARK   22  A    between atoms: _50  and  _53
REMARK   23  A    between atoms: _53  and  _54
REMARK   24  A    between atoms: _57  and  _59
REMARK   25  A    between atoms: _59  and  _60
REMARK   26  A    between atoms: _59  and  _62
REMARK   27  A    between atoms: _62  and  _63
REMARK   28  A    between atoms: _68  and  _70
REMARK   29  A    between atoms: _70  and  _71
REMARK   30  A    between atoms: _70  and  _73
REMARK   31  A    between atoms: _73  and  _74
REMARK   32  A    between atoms: _77  and  _79
REMARK   33  A    between atoms: _79  and  _80
REMARK   34  A    between atoms: _79  and  _82
REMARK   35  A    between atoms: _85  and  _87
REMARK   36  A    between atoms: _87  and  _88
REMARK   37  A    between atoms: _87  and  _90
REMARK   38  A    between atoms: _90  and  _91
REMARK   39  A    between atoms: _96  and  _97
REMARK   40  A    between atoms: _99  and  _101
REMARK   41  A    between atoms: _101  and  _102
REMARK   42  A    between atoms: _101  and  _104
REMARK   43  A    between atoms: _104  and  _105
REMARK   44  A    between atoms: _105  and  _106
REMARK   45  A    between atoms: _106  and  _107
REMARK   46  A    between atoms: _107  and  _108
REMARK   47  A    between atoms: _112  and  _114
REMARK   48  A    between atoms: _114  and  _115
REMARK   49  A    between atoms: _114  and  _117
REMARK   50  A    between atoms: _117  and  _118
REMARK   51  A    between atoms: _118  and  _119
REMARK   52  A    between atoms: _122  and  _124
REMARK   53  A    between atoms: _124  and  _125
REMARK   54  A    between atoms: _124  and  _127
REMARK   55  A    between atoms: _127  and  _128
REMARK   56  A    between atoms: _130  and  _132
REMARK   57  A    between atoms: _132  and  _133
REMARK   58  A    between atoms: _132  and  _135
REMARK   59  A    between atoms: _135  and  _136
REMARK   60  A    between atoms: _141  and  _142
REMARK   61  A    between atoms: _144  and  _146
REMARK   62  A    between atoms: _146  and  _147
REMARK   63  A    between atoms: _146  and  _149
REMARK   64  A    between atoms: _149  and  _150
REMARK   65  A    between atoms: _150  and  _151
REMARK   66  A    between atoms: _151  and  _152
REMARK   67  A    between atoms: _161  and  _163
REMARK   68  A    between atoms: _163  and  _164
REMARK   69  A    between atoms: _163  and  _166
REMARK   70  A    between atoms: _166  and  _167
REMARK   71  A    between atoms: _167  and  _168
REMARK   72  A    between atoms: _168  and  _169
REMARK   73  A    between atoms: _169  and  _170
REMARK   74  A    between atoms: _174  and  _176
REMARK   75  A    between atoms: _181  and  _182
REMARK   76  A    between atoms: _182  and  CA_267
REMARK   77  A    between atoms: _186  and  _189
REMARK   78  A    between atoms: _189  and  _190
REMARK   79  A    between atoms: _190  and  _191
REMARK   80  A    between atoms: _198  and  _199
REMARK   81  A    between atoms: _205  and  _207
REMARK   82  A    between atoms: _207  and  _208
REMARK   83  A    between atoms: _207  and  _210
REMARK   84  A    between atoms: _210  and  _211
REMARK   85  A    between atoms: _213  and  _215
REMARK   86  A    between atoms: _215  and  _216
REMARK   87  A    between atoms: _215  and  _218
REMARK   88  A    between atoms: _218  and  _219
REMARK   89  A    between atoms: _219  and  _220
REMARK   90  A    between atoms: _220  and  _221
REMARK   91  A    between atoms: _221  and  _222
REMARK   92  A    between atoms: _226  and  _228
REMARK   93  A    between atoms: _228  and  _229
REMARK   94  A    between atoms: _228  and  _231
REMARK   95  A    between atoms: _231  and  _232
REMARK   96  A    between atoms: _238  and  _240
REMARK   97  A    between atoms: _240  and  _241
REMARK   98  A    between atoms: _240  and  _243
REMARK   99  A    between atoms: _243  and  _244
REMARK  100  A    between atoms: _247  and  _249
REMARK  101  A    between atoms: _249  and  _250
REMARK  102  A    between atoms: _249  and  _252
REMARK  103  A    between atoms: _252  and  _253
REMARK  104  A    between atoms: _255  and  _257
REMARK  105  A    between atoms: _257  and  _258
REMARK  106  A    between atoms: _257  and  _260
REMARK  107  A    between atoms: _260  and  _261
REMARK  108  A    between atoms: _261  and  _262
REMARK  109  A    between atoms: _262  and  _263
REMARK  110  A    between atoms: _262  and  _264
REMARK  111  A    between atoms: _263  and  CA_267
REMARK                            x       y       z     vdW  Elec       q    Type
REMARK                         _______ _______ _______ _____ _____    ______ ____
ROOT
ATOM      1  O   HOH     1      11.102  21.614  52.695  0.00  0.00    +0.000 OA
ENDROOT
TORSDOF 0
REMARK  Name = ../refined-set-2016/3kqr/3kqr_pocket.pdb
REMARK  111 active torsions:
REMARK  status: ('A' for Active; 'I' for Inactive)
REMARK    1  A    between atoms: _1  and  _3
REMARK    2  A    between atoms: _3  and  _4
REMARK    3  A    between atoms: _7  and  _9
REMARK    4  A    between atoms: _9  and  _10
REMARK    5  A    between atoms: _9  and  _12
REMARK    6  A    between atoms: _12  and  _13
REMARK    7  A    between atoms: _18  and  _19
REMARK    8  A    between atoms: _21  and  _23
REMARK    9  A    between atoms: _23  and  _24
REMARK   10  A    between atoms: _23  and  _26
REMARK   11  A    between atoms: _26  and  _27
REMARK   12  A    between atoms: _29  and  _31
REMARK   13  A    between atoms: _31  and  _32
REMARK   14  A    between atoms: _31  and  _34
REMARK   15  A    between atoms: _34  and  _35
REMARK   16  A    between atoms: _37  and  _39
REMARK   17  A    between atoms: _39  and  _40
REMARK   18  A    between atoms: _39  and  _42
REMARK   19  A    between atoms: _42  and  _43
REMARK   20  A    between atoms: _48  and  _50
REMARK   21  A    between atoms: _50  and  _51
REMARK   22  A    between atoms: _50  and  _53
REMARK   23  A    between atoms: _53  and  _54
REMARK   24  A    between atoms: _57  and  _59
REMARK   25  A    between atoms: _59  and  _60
REMARK   26  A    between atoms: _59  and  _62
REMARK   27  A    between atoms: _62  and  _63
REMARK   28  A    between atoms: _68  and  _70
REMARK   29  A    between atoms: _70  and  _71
REMARK   30  A    between atoms: _70  and  _73
REMARK   31  A    between atoms: _73  and  _74
REMARK   32  A    between atoms: _77  and  _79
REMARK   33  A    between atoms: _79  and  _80
REMARK   34  A    between atoms: _79  and  _82
REMARK   35  A    between atoms: _85  and  _87
REMARK   36  A    between atoms: _87  and  _88
REMARK   37  A    between atoms: _87  and  _90
REMARK   38  A    between atoms: _90  and  _91
REMARK   39  A    between atoms: _96  and  _97
REMARK   40  A    between atoms: _99  and  _101
REMARK   41  A    between atoms: _101  and  _102
REMARK   42  A    between atoms: _101  and  _104
REMARK   43  A    between atoms: _104  and  _105
REMARK   44  A    between atoms: _105  and  _106
REMARK   45  A    between atoms: _106  and  _107
REMARK   46  A    between atoms: _107  and  _108
REMARK   47  A    between atoms: _112  and  _114
REMARK   48  A    between atoms: _114  and  _115
REMARK   49  A    between atoms: _114  and  _117
REMARK   50  A    between atoms: _117  and  _118
REMARK   51  A    between atoms: _118  and  _119
REMARK   52  A    between atoms: _122  and  _124
REMARK   53  A    between atoms: _124  and  _125
REMARK   54  A    between atoms: _124  and  _127
REMARK   55  A    between atoms: _127  and  _128
REMARK   56  A    between atoms: _130  and  _132
REMARK   57  A    between atoms: _132  and  _133
REMARK   58  A    between atoms: _132  and  _135
REMARK   59  A    between atoms: _135  and  _136
REMARK   60  A    between atoms: _141  and  _142
REMARK   61  A    between atoms: _144  and  _146
REMARK   62  A    between atoms: _146  and  _147
REMARK   63  A    between atoms: _146  and  _149
REMARK   64  A    between atoms: _149  and  _150
REMARK   65  A    between atoms: _150  and  _151
REMARK   66  A    between atoms: _151  and  _152
REMARK   67  A    between atoms: _161  and  _163
REMARK   68  A    between atoms: _163  and  _164
REMARK   69  A    between atoms: _163  and  _166
REMARK   70  A    between atoms: _166  and  _167
REMARK   71  A    between atoms: _167  and  _168
REMARK   72  A    between atoms: _168  and  _169
REMARK   73  A    between atoms: _169  and  _170
REMARK   74  A    between atoms: _174  and  _176
REMARK   75  A    between atoms: _181  and  _182
REMARK   76  A    between atoms: _182  and  CA_267
REMARK   77  A    between atoms: _186  and  _189
REMARK   78  A    between atoms: _189  and  _190
REMARK   79  A    between atoms: _190  and  _191
REMARK   80  A    between atoms: _198  and  _199
REMARK   81  A    between atoms: _205  and  _207
REMARK   82  A    between atoms: _207  and  _208
REMARK   83  A    between atoms: _207  and  _210
REMARK   84  A    between atoms: _210  and  _211
REMARK   85  A    between atoms: _213  and  _215
REMARK   86  A    between atoms: _215  and  _216
REMARK   87  A    between atoms: _215  and  _218
REMARK   88  A    between atoms: _218  and  _219
REMARK   89  A    between atoms: _219  and  _220
REMARK   90  A    between atoms: _220  and  _221
REMARK   91  A    between atoms: _221  and  _222
REMARK   92  A    between atoms: _226  and  _228
REMARK   93  A    between atoms: _228  and  _229
REMARK   94  A    between atoms: _228  and  _231
REMARK   95  A    between atoms: _231  and  _232
REMARK   96  A    between atoms: _238  and  _240
REMARK   97  A    between atoms: _240  and  _241
REMARK   98  A    between atoms: _240  and  _243
REMARK   99  A    between atoms: _243  and  _244
REMARK  100  A    between atoms: _247  and  _249
REMARK  101  A    between atoms: _249  and  _250
REMARK  102  A    between atoms: _249  and  _252
REMARK  103  A    between atoms: _252  and  _253
REMARK  104  A    between atoms: _255  and  _257
REMARK  105  A    between atoms: _257  and  _258
REMARK  106  A    between atoms: _257  and  _260
REMARK  107  A    between atoms: _260  and  _261
REMARK  108  A    between atoms: _261  and  _262
REMARK  109  A    between atoms: _262  and  _263
REMARK  110  A    between atoms: _262  and  _264
REMARK  111  A    between atoms: _263  and  CA_267
REMARK                            x       y       z     vdW  Elec       q    Type
REMARK                         _______ _______ _______ _____ _____    ______ ____
ROOT
ATOM      1  O   HOH     1      17.544  16.615  52.975  0.00  0.00    +0.000 OA
ENDROOT
TORSDOF 0
REMARK  Name = ../refined-set-2016/3kqr/3kqr_pocket.pdb
REMARK  111 active torsions:
REMARK  status: ('A' for Active; 'I' for Inactive)
REMARK    1  A    between atoms: _1  and  _3
REMARK    2  A    between atoms: _3  and  _4
REMARK    3  A    between atoms: _7  and  _9
REMARK    4  A    between atoms: _9  and  _10
REMARK    5  A    between atoms: _9  and  _12
REMARK    6  A    between atoms: _12  and  _13
REMARK    7  A    between atoms: _18  and  _19
REMARK    8  A    between atoms: _21  and  _23
REMARK    9  A    between atoms: _23  and  _24
REMARK   10  A    between atoms: _23  and  _26
REMARK   11  A    between atoms: _26  and  _27
REMARK   12  A    between atoms: _29  and  _31
REMARK   13  A    between atoms: _31  and  _32
REMARK   14  A    between atoms: _31  and  _34
REMARK   15  A    between atoms: _34  and  _35
REMARK   16  A    between atoms: _37  and  _39
REMARK   17  A    between atoms: _39  and  _40
REMARK   18  A    between atoms: _39  and  _42
REMARK   19  A    between atoms: _42  and  _43
REMARK   20  A    between atoms: _48  and  _50
REMARK   21  A    between atoms: _50  and  _51
REMARK   22  A    between atoms: _50  and  _53
REMARK   23  A    between atoms: _53  and  _54
REMARK   24  A    between atoms: _57  and  _59
REMARK   25  A    between atoms: _59  and  _60
REMARK   26  A    between atoms: _59  and  _62
REMARK   27  A    between atoms: _62  and  _63
REMARK   28  A    between atoms: _68  and  _70
REMARK   29  A    between atoms: _70  and  _71
REMARK   30  A    between atoms: _70  and  _73
REMARK   31  A    between atoms: _73  and  _74
REMARK   32  A    between atoms: _77  and  _79
REMARK   33  A    between atoms: _79  and  _80
REMARK   34  A    between atoms: _79  and  _82
REMARK   35  A    between atoms: _85  and  _87
REMARK   36  A    between atoms: _87  and  _88
REMARK   37  A    between atoms: _87  and  _90
REMARK   38  A    between atoms: _90  and  _91
REMARK   39  A    between atoms: _96  and  _97
REMARK   40  A    between atoms: _99  and  _101
REMARK   41  A    between atoms: _101  and  _102
REMARK   42  A    between atoms: _101  and  _104
REMARK   43  A    between atoms: _104  and  _105
REMARK   44  A    between atoms: _105  and  _106
REMARK   45  A    between atoms: _106  and  _107
REMARK   46  A    between atoms: _107  and  _108
REMARK   47  A    between atoms: _112  and  _114
REMARK   48  A    between atoms: _114  and  _115
REMARK   49  A    between atoms: _114  and  _117
REMARK   50  A    between atoms: _117  and  _118
REMARK   51  A    between atoms: _118  and  _119
REMARK   52  A    between atoms: _122  and  _124
REMARK   53  A    between atoms: _124  and  _125
REMARK   54  A    between atoms: _124  and  _127
REMARK   55  A    between atoms: _127  and  _128
REMARK   56  A    between atoms: _130  and  _132
REMARK   57  A    between atoms: _132  and  _133
REMARK   58  A    between atoms: _132  and  _135
REMARK   59  A    between atoms: _135  and  _136
REMARK   60  A    between atoms: _141  and  _142
REMARK   61  A    between atoms: _144  and  _146
REMARK   62  A    between atoms: _146  and  _147
REMARK   63  A    between atoms: _146  and  _149
REMARK   64  A    between atoms: _149  and  _150
REMARK   65  A    between atoms: _150  and  _151
REMARK   66  A    between atoms: _151  and  _152
REMARK   67  A    between atoms: _161  and  _163
REMARK   68  A    between atoms: _163  and  _164
REMARK   69  A    between atoms: _163  and  _166
REMARK   70  A    between atoms: _166  and  _167
REMARK   71  A    between atoms: _167  and  _168
REMARK   72  A    between atoms: _168  and  _169
REMARK   73  A    between atoms: _169  and  _170
REMARK   74  A    between atoms: _174  and  _176
REMARK   75  A    between atoms: _181  and  _182
REMARK   76  A    between atoms: _182  and  CA_267
REMARK   77  A    between atoms: _186  and  _189
REMARK   78  A    between atoms: _189  and  _190
REMARK   79  A    between atoms: _190  and  _191
REMARK   80  A    between atoms: _198  and  _199
REMARK   81  A    between atoms: _205  and  _207
REMARK   82  A    between atoms: _207  and  _208
REMARK   83  A    between atoms: _207  and  _210
REMARK   84  A    between atoms: _210  and  _211
REMARK   85  A    between atoms: _213  and  _215
REMARK   86  A    between atoms: _215  and  _216
REMARK   87  A    between atoms: _215  and  _218
REMARK   88  A    between atoms: _218  and  _219
REMARK   89  A    between atoms: _219  and  _220
REMARK   90  A    between atoms: _220  and  _221
REMARK   91  A    between atoms: _221  and  _222
REMARK   92  A    between atoms: _226  and  _228
REMARK   93  A    between atoms: _228  and  _229
REMARK   94  A    between atoms: _228  and  _231
REMARK   95  A    between atoms: _231  and  _232
REMARK   96  A    between atoms: _238  and  _240
REMARK   97  A    between atoms: _240  and  _241
REMARK   98  A    between atoms: _240  and  _243
REMARK   99  A    between atoms: _243  and  _244
REMARK  100  A    between atoms: _247  and  _249
REMARK  101  A    between atoms: _249  and  _250
REMARK  102  A    between atoms: _249  and  _252
REMARK  103  A    between atoms: _252  and  _253
REMARK  104  A    between atoms: _255  and  _257
REMARK  105  A    between atoms: _257  and  _258
REMARK  106  A    between atoms: _257  and  _260
REMARK  107  A    between atoms: _260  and  _261
REMARK  108  A    between atoms: _261  and  _262
REMARK  109  A    between atoms: _262  and  _263
REMARK  110  A    between atoms: _262  and  _264
REMARK  111  A    between atoms: _263  and  CA_267
REMARK                            x       y       z     vdW  Elec       q    Type
REMARK                         _______ _______ _______ _____ _____    ______ ____
ROOT
ATOM      1  O   HOH     1      11.268  20.792  59.570  0.00  0.00    +0.000 OA
ENDROOT
TORSDOF 0
REMARK  Name = ../refined-set-2016/3kqr/3kqr_pocket.pdb
REMARK  111 active torsions:
REMARK  status: ('A' for Active; 'I' for Inactive)
REMARK    1  A    between atoms: _1  and  _3
REMARK    2  A    between atoms: _3  and  _4
REMARK    3  A    between atoms: _7  and  _9
REMARK    4  A    between atoms: _9  and  _10
REMARK    5  A    between atoms: _9  and  _12
REMARK    6  A    between atoms: _12  and  _13
REMARK    7  A    between atoms: _18  and  _19
REMARK    8  A    between atoms: _21  and  _23
REMARK    9  A    between atoms: _23  and  _24
REMARK   10  A    between atoms: _23  and  _26
REMARK   11  A    between atoms: _26  and  _27
REMARK   12  A    between atoms: _29  and  _31
REMARK   13  A    between atoms: _31  and  _32
REMARK   14  A    between atoms: _31  and  _34
REMARK   15  A    between atoms: _34  and  _35
REMARK   16  A    between atoms: _37  and  _39
REMARK   17  A    between atoms: _39  and  _40
REMARK   18  A    between atoms: _39  and  _42
REMARK   19  A    between atoms: _42  and  _43
REMARK   20  A    between atoms: _48  and  _50
REMARK   21  A    between atoms: _50  and  _51
REMARK   22  A    between atoms: _50  and  _53
REMARK   23  A    between atoms: _53  and  _54
REMARK   24  A    between atoms: _57  and  _59
REMARK   25  A    between atoms: _59  and  _60
REMARK   26  A    between atoms: _59  and  _62
REMARK   27  A    between atoms: _62  and  _63
REMARK   28  A    between atoms: _68  and  _70
REMARK   29  A    between atoms: _70  and  _71
REMARK   30  A    between atoms: _70  and  _73
REMARK   31  A    between atoms: _73  and  _74
REMARK   32  A    between atoms: _77  and  _79
REMARK   33  A    between atoms: _79  and  _80
REMARK   34  A    between atoms: _79  and  _82
REMARK   35  A    between atoms: _85  and  _87
REMARK   36  A    between atoms: _87  and  _88
REMARK   37  A    between atoms: _87  and  _90
REMARK   38  A    between atoms: _90  and  _91
REMARK   39  A    between atoms: _96  and  _97
REMARK   40  A    between atoms: _99  and  _101
REMARK   41  A    between atoms: _101  and  _102
REMARK   42  A    between atoms: _101  and  _104
REMARK   43  A    between atoms: _104  and  _105
REMARK   44  A    between atoms: _105  and  _106
REMARK   45  A    between atoms: _106  and  _107
REMARK   46  A    between atoms: _107  and  _108
REMARK   47  A    between atoms: _112  and  _114
REMARK   48  A    between atoms: _114  and  _115
REMARK   49  A    between atoms: _114  and  _117
REMARK   50  A    between atoms: _117  and  _118
REMARK   51  A    between atoms: _118  and  _119
REMARK   52  A    between atoms: _122  and  _124
REMARK   53  A    between atoms: _124  and  _125
REMARK   54  A    between atoms: _124  and  _127
REMARK   55  A    between atoms: _127  and  _128
REMARK   56  A    between atoms: _130  and  _132
REMARK   57  A    between atoms: _132  and  _133
REMARK   58  A    between atoms: _132  and  _135
REMARK   59  A    between atoms: _135  and  _136
REMARK   60  A    between atoms: _141  and  _142
REMARK   61  A    between atoms: _144  and  _146
REMARK   62  A    between atoms: _146  and  _147
REMARK   63  A    between atoms: _146  and  _149
REMARK   64  A    between atoms: _149  and  _150
REMARK   65  A    between atoms: _150  and  _151
REMARK   66  A    between atoms: _151  and  _152
REMARK   67  A    between atoms: _161  and  _163
REMARK   68  A    between atoms: _163  and  _164
REMARK   69  A    between atoms: _163  and  _166
REMARK   70  A    between atoms: _166  and  _167
REMARK   71  A    between atoms: _167  and  _168
REMARK   72  A    between atoms: _168  and  _169
REMARK   73  A    between atoms: _169  and  _170
REMARK   74  A    between atoms: _174  and  _176
REMARK   75  A    between atoms: _181  and  _182
REMARK   76  A    between atoms: _182  and  CA_267
REMARK   77  A    between atoms: _186  and  _189
REMARK   78  A    between atoms: _189  and  _190
REMARK   79  A    between atoms: _190  and  _191
REMARK   80  A    between atoms: _198  and  _199
REMARK   81  A    between atoms: _205  and  _207
REMARK   82  A    between atoms: _207  and  _208
REMARK   83  A    between atoms: _207  and  _210
REMARK   84  A    between atoms: _210  and  _211
REMARK   85  A    between atoms: _213  and  _215
REMARK   86  A    between atoms: _215  and  _216
REMARK   87  A    between atoms: _215  and  _218
REMARK   88  A    between atoms: _218  and  _219
REMARK   89  A    between atoms: _219  and  _220
REMARK   90  A    between atoms: _220  and  _221
REMARK   91  A    between atoms: _221  and  _222
REMARK   92  A    between atoms: _226  and  _228
REMARK   93  A    between atoms: _228  and  _229
REMARK   94  A    between atoms: _228  and  _231
REMARK   95  A    between atoms: _231  and  _232
REMARK   96  A    between atoms: _238  and  _240
REMARK   97  A    between atoms: _240  and  _241
REMARK   98  A    between atoms: _240  and  _243
REMARK   99  A    between atoms: _243  and  _244
REMARK  100  A    between atoms: _247  and  _249
REMARK  101  A    between atoms: _249  and  _250
REMARK  102  A    between atoms: _249  and  _252
REMARK  103  A    between atoms: _252  and  _253
REMARK  104  A    between atoms: _255  and  _257
REMARK  105  A    between atoms: _257  and  _258
REMARK  106  A    between atoms: _257  and  _260
REMARK  107  A    between atoms: _260  and  _261
REMARK  108  A    between atoms: _261  and  _262
REMARK  109  A    between atoms: _262  and  _263
REMARK  110  A    between atoms: _262  and  _264
REMARK  111  A    between atoms: _263  and  CA_267
REMARK                            x       y       z     vdW  Elec       q    Type
REMARK                         _______ _______ _______ _____ _____    ______ ____
ROOT
ATOM      1  O   HOH     1      17.298  15.560  49.999  0.00  0.00    +0.000 OA
ENDROOT
TORSDOF 0
