REMARK  Name = ../refined-set-2016/4m8x/4m8x_pocket.pdb
REMARK  221 active torsions:
REMARK  status: ('A' for Active; 'I' for Inactive)
REMARK    1  A    between atoms: _1  and  _3
REMARK    2  A    between atoms: _3  and  _4
REMARK    3  A    between atoms: _3  and  _6
REMARK    4  A    between atoms: _6  and  _7
REMARK    5  A    between atoms: _7  and  _8
REMARK    6  A    between atoms: _8  and  _9
REMARK    7  A    between atoms: _18  and  _20
REMARK    8  A    between atoms: _20  and  _21
REMARK    9  A    between atoms: _20  and  _23
REMARK   10  A    between atoms: _23  and  _24
REMARK   11  A    between atoms: _27  and  _29
REMARK   12  A    between atoms: _29  and  _30
REMARK   13  A    between atoms: _29  and  _32
REMARK   14  A    between atoms: _32  and  _33
REMARK   15  A    between atoms: _36  and  _38
REMARK   16  A    between atoms: _38  and  _39
REMARK   17  A    between atoms: _38  and  _41
REMARK   18  A    between atoms: _41  and  _42
REMARK   19  A    between atoms: _45  and  _47
REMARK   20  A    between atoms: _47  and  _48
REMARK   21  A    between atoms: _47  and  _50
REMARK   22  A    between atoms: _50  and  _51
REMARK   23  A    between atoms: _54  and  _56
REMARK   24  A    between atoms: _56  and  _57
REMARK   25  A    between atoms: _59  and  _61
REMARK   26  A    between atoms: _61  and  _62
REMARK   27  A    between atoms: _65  and  _67
REMARK   28  A    between atoms: _67  and  _68
REMARK   29  A    between atoms: _67  and  _70
REMARK   30  A    between atoms: _70  and  _71
REMARK   31  A    between atoms: _74  and  _76
REMARK   32  A    between atoms: _76  and  _77
REMARK   33  A    between atoms: _76  and  _79
REMARK   34  A    between atoms: _79  and  _80
REMARK   35  A    between atoms: _83  and  _85
REMARK   36  A    between atoms: _85  and  _86
REMARK   37  A    between atoms: _85  and  _88
REMARK   38  A    between atoms: _88  and  _89
REMARK   39  A    between atoms: _92  and  _94
REMARK   40  A    between atoms: _94  and  _95
REMARK   41  A    between atoms: _94  and  _97
REMARK   42  A    between atoms: _97  and  _98
REMARK   43  A    between atoms: _101  and  _103
REMARK   44  A    between atoms: _103  and  _104
REMARK   45  A    between atoms: _103  and  _106
REMARK   46  A    between atoms: _109  and  _111
REMARK   47  A    between atoms: _111  and  _112
REMARK   48  A    between atoms: _111  and  _114
REMARK   49  A    between atoms: _117  and  _119
REMARK   50  A    between atoms: _119  and  _120
REMARK   51  A    between atoms: _122  and  _124
REMARK   52  A    between atoms: _124  and  _125
REMARK   53  A    between atoms: _127  and  _129
REMARK   54  A    between atoms: _129  and  _130
REMARK   55  A    between atoms: _129  and  _132
REMARK   56  A    between atoms: _132  and  _133
REMARK   57  A    between atoms: _136  and  _138
REMARK   58  A    between atoms: _138  and  _139
REMARK   59  A    between atoms: _141  and  _143
REMARK   60  A    between atoms: _143  and  _144
REMARK   61  A    between atoms: _146  and  _148
REMARK   62  A    between atoms: _148  and  _149
REMARK   63  A    between atoms: _148  and  _151
REMARK   64  A    between atoms: _151  and  _152
REMARK   65  A    between atoms: _158  and  _160
REMARK   66  A    between atoms: _160  and  _161
REMARK   67  A    between atoms: _160  and  _163
REMARK   68  A    between atoms: _163  and  _164
REMARK   69  A    between atoms: _164  and  _165
REMARK   70  A    between atoms: _167  and  _169
REMARK   71  A    between atoms: _169  and  _170
REMARK   72  A    between atoms: _169  and  _172
REMARK   73  A    between atoms: _172  and  _173
REMARK   74  A    between atoms: _176  and  _178
REMARK   75  A    between atoms: _178  and  _179
REMARK   76  A    between atoms: _178  and  _181
REMARK   77  A    between atoms: _181  and  _182
REMARK   78  A    between atoms: _186  and  _187
REMARK   79  A    between atoms: _192  and  _194
REMARK   80  A    between atoms: _194  and  _195
REMARK   81  A    between atoms: _198  and  _200
REMARK   82  A    between atoms: _200  and  _201
REMARK   83  A    between atoms: _200  and  _203
REMARK   84  A    between atoms: _203  and  _204
REMARK   85  A    between atoms: _209  and  _211
REMARK   86  A    between atoms: _211  and  _212
REMARK   87  A    between atoms: _211  and  _214
REMARK   88  A    between atoms: _214  and  _215
REMARK   89  A    between atoms: _218  and  _220
REMARK   90  A    between atoms: _220  and  _221
REMARK   91  A    between atoms: _220  and  _223
REMARK   92  A    between atoms: _223  and  _224
REMARK   93  A    between atoms: _227  and  _229
REMARK   94  A    between atoms: _229  and  _230
REMARK   95  A    between atoms: _232  and  _234
REMARK   96  A    between atoms: _234  and  _235
REMARK   97  A    between atoms: _234  and  _237
REMARK   98  A    between atoms: _237  and  _238
REMARK   99  A    between atoms: _238  and  _239
REMARK  100  A    between atoms: _239  and  _240
REMARK  101  A    between atoms: _249  and  _251
REMARK  102  A    between atoms: _251  and  _252
REMARK  103  A    between atoms: _251  and  _254
REMARK  104  A    between atoms: _254  and  _255
REMARK  105  A    between atoms: _260  and  _262
REMARK  106  A    between atoms: _262  and  _263
REMARK  107  A    between atoms: _262  and  _265
REMARK  108  A    between atoms: _265  and  _266
REMARK  109  A    between atoms: _266  and  _267
REMARK  110  A    between atoms: _267  and  _268
REMARK  111  A    between atoms: _277  and  _279
REMARK  112  A    between atoms: _279  and  _280
REMARK  113  A    between atoms: _279  and  _282
REMARK  114  A    between atoms: _282  and  _283
REMARK  115  A    between atoms: _289  and  _291
REMARK  116  A    between atoms: _291  and  _292
REMARK  117  A    between atoms: _291  and  _294
REMARK  118  A    between atoms: _294  and  _295
REMARK  119  A    between atoms: _298  and  _300
REMARK  120  A    between atoms: _300  and  _301
REMARK  121  A    between atoms: _300  and  _303
REMARK  122  A    between atoms: _303  and  _304
REMARK  123  A    between atoms: _307  and  _309
REMARK  124  A    between atoms: _309  and  _310
REMARK  125  A    between atoms: _309  and  _312
REMARK  126  A    between atoms: _312  and  _313
REMARK  127  A    between atoms: _316  and  _318
REMARK  128  A    between atoms: _318  and  _319
REMARK  129  A    between atoms: _318  and  _321
REMARK  130  A    between atoms: _321  and  _322
REMARK  131  A    between atoms: _325  and  _327
REMARK  132  A    between atoms: _327  and  _328
REMARK  133  A    between atoms: _330  and  _332
REMARK  134  A    between atoms: _332  and  _333
REMARK  135  A    between atoms: _336  and  _338
REMARK  136  A    between atoms: _338  and  _339
REMARK  137  A    between atoms: _338  and  _341
REMARK  138  A    between atoms: _341  and  _342
REMARK  139  A    between atoms: _345  and  _347
REMARK  140  A    between atoms: _347  and  _348
REMARK  141  A    between atoms: _347  and  _350
REMARK  142  A    between atoms: _350  and  _351
REMARK  143  A    between atoms: _354  and  _356
REMARK  144  A    between atoms: _356  and  _357
REMARK  145  A    between atoms: _356  and  _359
REMARK  146  A    between atoms: _359  and  _360
REMARK  147  A    between atoms: _363  and  _365
REMARK  148  A    between atoms: _365  and  _366
REMARK  149  A    between atoms: _365  and  _368
REMARK  150  A    between atoms: _368  and  _369
REMARK  151  A    between atoms: _372  and  _374
REMARK  152  A    between atoms: _374  and  _375
REMARK  153  A    between atoms: _374  and  _377
REMARK  154  A    between atoms: _377  and  _378
REMARK  155  A    between atoms: _378  and  _379
REMARK  156  A    between atoms: _382  and  _384
REMARK  157  A    between atoms: _384  and  _385
REMARK  158  A    between atoms: _384  and  _387
REMARK  159  A    between atoms: _387  and  _388
REMARK  160  A    between atoms: _388  and  _389
REMARK  161  A    between atoms: _389  and  _390
REMARK  162  A    between atoms: _390  and  _391
REMARK  163  A    between atoms: _395  and  _397
REMARK  164  A    between atoms: _397  and  _398
REMARK  165  A    between atoms: _397  and  _400
REMARK  166  A    between atoms: _403  and  _405
REMARK  167  A    between atoms: _405  and  _406
REMARK  168  A    between atoms: _405  and  _408
REMARK  169  A    between atoms: _411  and  _413
REMARK  170  A    between atoms: _413  and  _414
REMARK  171  A    between atoms: _416  and  _418
REMARK  172  A    between atoms: _418  and  _419
REMARK  173  A    between atoms: _421  and  _423
REMARK  174  A    between atoms: _423  and  _424
REMARK  175  A    between atoms: _423  and  _426
REMARK  176  A    between atoms: _426  and  _427
REMARK  177  A    between atoms: _430  and  _432
REMARK  178  A    between atoms: _432  and  _433
REMARK  179  A    between atoms: _435  and  _437
REMARK  180  A    between atoms: _437  and  _438
REMARK  181  A    between atoms: _440  and  _442
REMARK  182  A    between atoms: _442  and  _443
REMARK  183  A    between atoms: _442  and  _445
REMARK  184  A    between atoms: _445  and  _446
REMARK  185  A    between atoms: _446  and  _447
REMARK  186  A    between atoms: _449  and  _451
REMARK  187  A    between atoms: _451  and  _452
REMARK  188  A    between atoms: _451  and  _454
REMARK  189  A    between atoms: _454  and  _455
REMARK  190  A    between atoms: _459  and  _460
REMARK  191  A    between atoms: _465  and  _467
REMARK  192  A    between atoms: _467  and  _468
REMARK  193  A    between atoms: _467  and  _470
REMARK  194  A    between atoms: _470  and  _471
REMARK  195  A    between atoms: _475  and  _476
REMARK  196  A    between atoms: _481  and  _483
REMARK  197  A    between atoms: _483  and  _484
REMARK  198  A    between atoms: _487  and  _489
REMARK  199  A    between atoms: _489  and  _490
REMARK  200  A    between atoms: _489  and  _492
REMARK  201  A    between atoms: _492  and  _493
REMARK  202  A    between atoms: _498  and  _500
REMARK  203  A    between atoms: _500  and  _501
REMARK  204  A    between atoms: _500  and  _503
REMARK  205  A    between atoms: _503  and  _504
REMARK  206  A    between atoms: _507  and  _509
REMARK  207  A    between atoms: _509  and  _510
REMARK  208  A    between atoms: _509  and  _512
REMARK  209  A    between atoms: _512  and  _513
REMARK  210  A    between atoms: _516  and  _518
REMARK  211  A    between atoms: _518  and  _519
REMARK  212  A    between atoms: _521  and  _523
REMARK  213  A    between atoms: _523  and  _524
REMARK  214  A    between atoms: _523  and  _526
REMARK  215  A    between atoms: _526  and  _527
REMARK  216  A    between atoms: _527  and  _528
REMARK  217  A    between atoms: _528  and  _529
REMARK  218  A    between atoms: _538  and  _540
REMARK  219  A    between atoms: _540  and  _541
REMARK  220  A    between atoms: _540  and  _543
REMARK  221  A    between atoms: _543  and  _544
REMARK                            x       y       z     vdW  Elec       q    Type
REMARK                         _______ _______ _______ _____ _____    ______ ____
ROOT
ATOM      1  NE  ARG A   1      -9.312  62.548  10.039  0.00  0.00    -0.265 N 
ATOM      2  CZ  ARG A   1      -9.943  62.597  11.226  0.00  0.00    +0.342 C 
ATOM      3  NH2 ARG A   1      -9.353  63.101  12.324  0.00  0.00    -0.292 N 
ATOM      4 HH21 ARG A   1      -9.868  63.124  13.227  0.00  0.00    +0.255 HD
ATOM      5 HH22 ARG A   1      -8.381  63.467  12.270  0.00  0.00    +0.255 HD
ATOM      6  NH1 ARG A   1     -11.192  62.116  11.334  0.00  0.00    -0.292 N 
ATOM      7 HH11 ARG A   1     -11.685  62.151  12.249  0.00  0.00    +0.255 HD
ATOM      8 HH12 ARG A   1     -11.666  61.709  10.503  0.00  0.00    +0.255 HD
ATOM      9  HE  ARG A   1      -9.832  62.116   9.248  0.00  0.00    +0.259 HD
ENDROOT
BRANCH   1  10
ATOM     10  CD  ARG A   1      -7.957  63.046   9.750  0.00  0.00    +0.174 C 
BRANCH  10  11
ATOM     11  CG  ARG A   1      -6.876  61.948   9.688  0.00  0.00    +0.045 C 
BRANCH  11  12
ATOM     12  CB  ARG A   1      -5.727  62.400   8.785  0.00  0.00    +0.029 C 
BRANCH  12  13
ATOM     13  CA  ARG A   1      -4.357  61.799   9.096  0.00  0.00    +0.133 C 
BRANCH  13  14
ATOM     14  N   ARG A   1      -3.846  62.278  10.402  0.00  0.00    -0.239 NA
ATOM     15  H   ARG A   1      -4.438  62.914  10.974  0.00  0.00    +0.142 HD
ENDBRANCH  13  14
BRANCH  13  16
ATOM     16  C   ARG A   1      -3.357  62.217   8.010  0.00  0.00    +0.224 C 
ATOM     17  O   ARG A   1      -2.872  63.345   8.056  0.00  0.00    -0.287 OA
ENDBRANCH  13  16
ENDBRANCH  12  13
ENDBRANCH  11  12
ENDBRANCH  10  11
ENDBRANCH   1  10
TORSDOF 6
REMARK  Name = ../refined-set-2016/4m8x/4m8x_pocket.pdb
REMARK  221 active torsions:
REMARK  status: ('A' for Active; 'I' for Inactive)
REMARK    1  A    between atoms: _1  and  _3
REMARK    2  A    between atoms: _3  and  _4
REMARK    3  A    between atoms: _3  and  _6
REMARK    4  A    between atoms: _6  and  _7
REMARK    5  A    between atoms: _7  and  _8
REMARK    6  A    between atoms: _8  and  _9
REMARK    7  A    between atoms: _18  and  _20
REMARK    8  A    between atoms: _20  and  _21
REMARK    9  A    between atoms: _20  and  _23
REMARK   10  A    between atoms: _23  and  _24
REMARK   11  A    between atoms: _27  and  _29
REMARK   12  A    between atoms: _29  and  _30
REMARK   13  A    between atoms: _29  and  _32
REMARK   14  A    between atoms: _32  and  _33
REMARK   15  A    between atoms: _36  and  _38
REMARK   16  A    between atoms: _38  and  _39
REMARK   17  A    between atoms: _38  and  _41
REMARK   18  A    between atoms: _41  and  _42
REMARK   19  A    between atoms: _45  and  _47
REMARK   20  A    between atoms: _47  and  _48
REMARK   21  A    between atoms: _47  and  _50
REMARK   22  A    between atoms: _50  and  _51
REMARK   23  A    between atoms: _54  and  _56
REMARK   24  A    between atoms: _56  and  _57
REMARK   25  A    between atoms: _59  and  _61
REMARK   26  A    between atoms: _61  and  _62
REMARK   27  A    between atoms: _65  and  _67
REMARK   28  A    between atoms: _67  and  _68
REMARK   29  A    between atoms: _67  and  _70
REMARK   30  A    between atoms: _70  and  _71
REMARK   31  A    between atoms: _74  and  _76
REMARK   32  A    between atoms: _76  and  _77
REMARK   33  A    between atoms: _76  and  _79
REMARK   34  A    between atoms: _79  and  _80
REMARK   35  A    between atoms: _83  and  _85
REMARK   36  A    between atoms: _85  and  _86
REMARK   37  A    between atoms: _85  and  _88
REMARK   38  A    between atoms: _88  and  _89
REMARK   39  A    between atoms: _92  and  _94
REMARK   40  A    between atoms: _94  and  _95
REMARK   41  A    between atoms: _94  and  _97
REMARK   42  A    between atoms: _97  and  _98
REMARK   43  A    between atoms: _101  and  _103
REMARK   44  A    between atoms: _103  and  _104
REMARK   45  A    between atoms: _103  and  _106
REMARK   46  A    between atoms: _109  and  _111
REMARK   47  A    between atoms: _111  and  _112
REMARK   48  A    between atoms: _111  and  _114
REMARK   49  A    between atoms: _117  and  _119
REMARK   50  A    between atoms: _119  and  _120
REMARK   51  A    between atoms: _122  and  _124
REMARK   52  A    between atoms: _124  and  _125
REMARK   53  A    between atoms: _127  and  _129
REMARK   54  A    between atoms: _129  and  _130
REMARK   55  A    between atoms: _129  and  _132
REMARK   56  A    between atoms: _132  and  _133
REMARK   57  A    between atoms: _136  and  _138
REMARK   58  A    between atoms: _138  and  _139
REMARK   59  A    between atoms: _141  and  _143
REMARK   60  A    between atoms: _143  and  _144
REMARK   61  A    between atoms: _146  and  _148
REMARK   62  A    between atoms: _148  and  _149
REMARK   63  A    between atoms: _148  and  _151
REMARK   64  A    between atoms: _151  and  _152
REMARK   65  A    between atoms: _158  and  _160
REMARK   66  A    between atoms: _160  and  _161
REMARK   67  A    between atoms: _160  and  _163
REMARK   68  A    between atoms: _163  and  _164
REMARK   69  A    between atoms: _164  and  _165
REMARK   70  A    between atoms: _167  and  _169
REMARK   71  A    between atoms: _169  and  _170
REMARK   72  A    between atoms: _169  and  _172
REMARK   73  A    between atoms: _172  and  _173
REMARK   74  A    between atoms: _176  and  _178
REMARK   75  A    between atoms: _178  and  _179
REMARK   76  A    between atoms: _178  and  _181
REMARK   77  A    between atoms: _181  and  _182
REMARK   78  A    between atoms: _186  and  _187
REMARK   79  A    between atoms: _192  and  _194
REMARK   80  A    between atoms: _194  and  _195
REMARK   81  A    between atoms: _198  and  _200
REMARK   82  A    between atoms: _200  and  _201
REMARK   83  A    between atoms: _200  and  _203
REMARK   84  A    between atoms: _203  and  _204
REMARK   85  A    between atoms: _209  and  _211
REMARK   86  A    between atoms: _211  and  _212
REMARK   87  A    between atoms: _211  and  _214
REMARK   88  A    between atoms: _214  and  _215
REMARK   89  A    between atoms: _218  and  _220
REMARK   90  A    between atoms: _220  and  _221
REMARK   91  A    between atoms: _220  and  _223
REMARK   92  A    between atoms: _223  and  _224
REMARK   93  A    between atoms: _227  and  _229
REMARK   94  A    between atoms: _229  and  _230
REMARK   95  A    between atoms: _232  and  _234
REMARK   96  A    between atoms: _234  and  _235
REMARK   97  A    between atoms: _234  and  _237
REMARK   98  A    between atoms: _237  and  _238
REMARK   99  A    between atoms: _238  and  _239
REMARK  100  A    between atoms: _239  and  _240
REMARK  101  A    between atoms: _249  and  _251
REMARK  102  A    between atoms: _251  and  _252
REMARK  103  A    between atoms: _251  and  _254
REMARK  104  A    between atoms: _254  and  _255
REMARK  105  A    between atoms: _260  and  _262
REMARK  106  A    between atoms: _262  and  _263
REMARK  107  A    between atoms: _262  and  _265
REMARK  108  A    between atoms: _265  and  _266
REMARK  109  A    between atoms: _266  and  _267
REMARK  110  A    between atoms: _267  and  _268
REMARK  111  A    between atoms: _277  and  _279
REMARK  112  A    between atoms: _279  and  _280
REMARK  113  A    between atoms: _279  and  _282
REMARK  114  A    between atoms: _282  and  _283
REMARK  115  A    between atoms: _289  and  _291
REMARK  116  A    between atoms: _291  and  _292
REMARK  117  A    between atoms: _291  and  _294
REMARK  118  A    between atoms: _294  and  _295
REMARK  119  A    between atoms: _298  and  _300
REMARK  120  A    between atoms: _300  and  _301
REMARK  121  A    between atoms: _300  and  _303
REMARK  122  A    between atoms: _303  and  _304
REMARK  123  A    between atoms: _307  and  _309
REMARK  124  A    between atoms: _309  and  _310
REMARK  125  A    between atoms: _309  and  _312
REMARK  126  A    between atoms: _312  and  _313
REMARK  127  A    between atoms: _316  and  _318
REMARK  128  A    between atoms: _318  and  _319
REMARK  129  A    between atoms: _318  and  _321
REMARK  130  A    between atoms: _321  and  _322
REMARK  131  A    between atoms: _325  and  _327
REMARK  132  A    between atoms: _327  and  _328
REMARK  133  A    between atoms: _330  and  _332
REMARK  134  A    between atoms: _332  and  _333
REMARK  135  A    between atoms: _336  and  _338
REMARK  136  A    between atoms: _338  and  _339
REMARK  137  A    between atoms: _338  and  _341
REMARK  138  A    between atoms: _341  and  _342
REMARK  139  A    between atoms: _345  and  _347
REMARK  140  A    between atoms: _347  and  _348
REMARK  141  A    between atoms: _347  and  _350
REMARK  142  A    between atoms: _350  and  _351
REMARK  143  A    between atoms: _354  and  _356
REMARK  144  A    between atoms: _356  and  _357
REMARK  145  A    between atoms: _356  and  _359
REMARK  146  A    between atoms: _359  and  _360
REMARK  147  A    between atoms: _363  and  _365
REMARK  148  A    between atoms: _365  and  _366
REMARK  149  A    between atoms: _365  and  _368
REMARK  150  A    between atoms: _368  and  _369
REMARK  151  A    between atoms: _372  and  _374
REMARK  152  A    between atoms: _374  and  _375
REMARK  153  A    between atoms: _374  and  _377
REMARK  154  A    between atoms: _377  and  _378
REMARK  155  A    between atoms: _378  and  _379
REMARK  156  A    between atoms: _382  and  _384
REMARK  157  A    between atoms: _384  and  _385
REMARK  158  A    between atoms: _384  and  _387
REMARK  159  A    between atoms: _387  and  _388
REMARK  160  A    between atoms: _388  and  _389
REMARK  161  A    between atoms: _389  and  _390
REMARK  162  A    between atoms: _390  and  _391
REMARK  163  A    between atoms: _395  and  _397
REMARK  164  A    between atoms: _397  and  _398
REMARK  165  A    between atoms: _397  and  _400
REMARK  166  A    between atoms: _403  and  _405
REMARK  167  A    between atoms: _405  and  _406
REMARK  168  A    between atoms: _405  and  _408
REMARK  169  A    between atoms: _411  and  _413
REMARK  170  A    between atoms: _413  and  _414
REMARK  171  A    between atoms: _416  and  _418
REMARK  172  A    between atoms: _418  and  _419
REMARK  173  A    between atoms: _421  and  _423
REMARK  174  A    between atoms: _423  and  _424
REMARK  175  A    between atoms: _423  and  _426
REMARK  176  A    between atoms: _426  and  _427
REMARK  177  A    between atoms: _430  and  _432
REMARK  178  A    between atoms: _432  and  _433
REMARK  179  A    between atoms: _435  and  _437
REMARK  180  A    between atoms: _437  and  _438
REMARK  181  A    between atoms: _440  and  _442
REMARK  182  A    between atoms: _442  and  _443
REMARK  183  A    between atoms: _442  and  _445
REMARK  184  A    between atoms: _445  and  _446
REMARK  185  A    between atoms: _446  and  _447
REMARK  186  A    between atoms: _449  and  _451
REMARK  187  A    between atoms: _451  and  _452
REMARK  188  A    between atoms: _451  and  _454
REMARK  189  A    between atoms: _454  and  _455
REMARK  190  A    between atoms: _459  and  _460
REMARK  191  A    between atoms: _465  and  _467
REMARK  192  A    between atoms: _467  and  _468
REMARK  193  A    between atoms: _467  and  _470
REMARK  194  A    between atoms: _470  and  _471
REMARK  195  A    between atoms: _475  and  _476
REMARK  196  A    between atoms: _481  and  _483
REMARK  197  A    between atoms: _483  and  _484
REMARK  198  A    between atoms: _487  and  _489
REMARK  199  A    between atoms: _489  and  _490
REMARK  200  A    between atoms: _489  and  _492
REMARK  201  A    between atoms: _492  and  _493
REMARK  202  A    between atoms: _498  and  _500
REMARK  203  A    between atoms: _500  and  _501
REMARK  204  A    between atoms: _500  and  _503
REMARK  205  A    between atoms: _503  and  _504
REMARK  206  A    between atoms: _507  and  _509
REMARK  207  A    between atoms: _509  and  _510
REMARK  208  A    between atoms: _509  and  _512
REMARK  209  A    between atoms: _512  and  _513
REMARK  210  A    between atoms: _516  and  _518
REMARK  211  A    between atoms: _518  and  _519
REMARK  212  A    between atoms: _521  and  _523
REMARK  213  A    between atoms: _523  and  _524
REMARK  214  A    between atoms: _523  and  _526
REMARK  215  A    between atoms: _526  and  _527
REMARK  216  A    between atoms: _527  and  _528
REMARK  217  A    between atoms: _528  and  _529
REMARK  218  A    between atoms: _538  and  _540
REMARK  219  A    between atoms: _540  and  _541
REMARK  220  A    between atoms: _540  and  _543
REMARK  221  A    between atoms: _543  and  _544
REMARK                            x       y       z     vdW  Elec       q    Type
REMARK                         _______ _______ _______ _____ _____    ______ ____
ROOT
ATOM      1  C   GLY A   5      -8.232  50.977   1.327  0.00  0.00    +0.243 C 
ATOM      2  O   GLY A   5      -9.263  50.284   1.345  0.00  0.00    -0.273 OA
ATOM      3  N   ALA A   6      -7.945  51.887   0.362  0.00  0.00    -0.297 N 
ATOM      4  H   ALA A   6      -7.003  52.327   0.387  0.00  0.00    +0.150 HD
ENDROOT
BRANCH   3   5
ATOM      5  CA  ALA A   6      -8.827  52.291  -0.683  0.00  0.00    +0.149 C 
ATOM      6  CB  ALA A   6      -8.888  53.831  -0.768  0.00  0.00    +0.031 C 
BRANCH   5   7
ATOM      7  C   ALA A   6      -8.266  51.738  -1.985  0.00  0.00    +0.241 C 
ATOM      8  O   ALA A   6      -7.120  52.027  -2.328  0.00  0.00    -0.273 OA
ATOM      9  N   ASP A   7      -9.038  50.921  -2.704  0.00  0.00    -0.297 N 
ATOM     10  H   ASP A   7      -9.969  50.628  -2.344  0.00  0.00    +0.150 HD
BRANCH   9  11
ATOM     11  CA  ASP A   7      -8.564  50.439  -4.007  0.00  0.00    +0.160 C 
BRANCH  11  12
ATOM     12  C   ASP A   7      -8.548  51.585  -5.011  0.00  0.00    +0.241 C 
ATOM     13  N   ASP A   8      -9.500  52.511  -4.845  0.00  0.00    -0.297 N 
ATOM     14  H   ASP A   8     -10.045  52.498  -3.959  0.00  0.00    +0.150 HD
ATOM     15  O   ASP A   7      -7.703  51.617  -5.901  0.00  0.00    -0.273 OA
BRANCH  13  16
ATOM     16  CA  ASP A   8      -9.822  53.545  -5.839  0.00  0.00    +0.160 C 
BRANCH  16  17
ATOM     17  C   ASP A   8      -9.701  54.937  -5.240  0.00  0.00    +0.241 C 
ATOM     18  O   ASP A   8      -9.853  55.129  -4.024  0.00  0.00    -0.273 OA
ATOM     19  N   THR A   9      -9.443  55.899  -6.122  0.00  0.00    -0.295 N 
ATOM     20  H   THR A   9      -9.276  55.629  -7.112  0.00  0.00    +0.150 HD
BRANCH  19  21
ATOM     21  CA  THR A   9      -9.383  57.306  -5.771  0.00  0.00    +0.176 C 
BRANCH  21  22
ATOM     22  C   THR A   9     -10.783  57.918  -5.902  0.00  0.00    +0.243 C 
ATOM     23  N   ILE A  10     -11.218  58.585  -4.835  0.00  0.00    -0.298 N 
ATOM     24  H   ILE A  10     -10.580  58.694  -4.021  0.00  0.00    +0.150 HD
ATOM     25  O   THR A   9     -11.453  57.765  -6.937  0.00  0.00    -0.273 OA
BRANCH  23  26
ATOM     26  CA  ILE A  10     -12.555  59.171  -4.760  0.00  0.00    +0.137 C 
BRANCH  26  27
ATOM     27  C   ILE A  10     -12.428  60.600  -4.285  0.00  0.00    +0.227 C 
ATOM     28  O   ILE A  10     -11.837  60.873  -3.238  0.00  0.00    -0.286 OA
ENDBRANCH  26  27
BRANCH  26  29
ATOM     29  CB  ILE A  10     -13.539  58.405  -3.810  0.00  0.00    +0.026 C 
ATOM     30  CG2 ILE A  10     -14.945  59.054  -3.900  0.00  0.00    +0.002 C 
BRANCH  29  31
ATOM     31  CG1 ILE A  10     -13.550  56.895  -4.138  0.00  0.00    +0.002 C 
ATOM     32  CD1 ILE A  10     -14.112  56.026  -3.093  0.00  0.00    +0.000 C 
ENDBRANCH  29  31
ENDBRANCH  26  29
ENDBRANCH  23  26
ENDBRANCH  21  22
BRANCH  21  33
ATOM     33  CB  THR A   9      -8.333  58.060  -6.663  0.00  0.00    +0.137 C 
ATOM     34  CG2 THR A   9      -8.438  59.583  -6.487  0.00  0.00    +0.034 C 
BRANCH  33  35
ATOM     35  OG1 THR A   9      -7.021  57.610  -6.293  0.00  0.00    -0.382 OA
ATOM     36  HG1 THR A   9      -6.954  56.633  -6.441  0.00  0.00    +0.210 HD
ENDBRANCH  33  35
ENDBRANCH  21  33
ENDBRANCH  19  21
ENDBRANCH  16  17
BRANCH  16  37
ATOM     37  CB  ASP A   8     -11.280  53.403  -6.329  0.00  0.00    +0.143 C 
BRANCH  37  38
ATOM     38  CG  ASP A   8     -11.546  52.095  -7.074  0.00  0.00    +0.367 C 
ATOM     39  OD2 ASP A   8     -12.647  51.537  -6.844  0.00  0.00    -0.246 OA
ATOM     40  OD1 ASP A   8     -10.706  51.650  -7.913  0.00  0.00    -0.246 OA
ENDBRANCH  37  38
ENDBRANCH  16  37
ENDBRANCH  13  16
ENDBRANCH  11  12
BRANCH  11  41
ATOM     41  CB  ASP A   7      -9.461  49.353  -4.609  0.00  0.00    +0.143 C 
BRANCH  41  42
ATOM     42  CG  ASP A   7      -9.675  48.170  -3.706  0.00  0.00    +0.367 C 
ATOM     43  OD2 ASP A   7      -8.828  47.855  -2.796  0.00  0.00    -0.246 OA
ATOM     44  OD1 ASP A   7     -10.745  47.549  -3.923  0.00  0.00    -0.246 OA
ENDBRANCH  41  42
ENDBRANCH  11  41
ENDBRANCH   9  11
ENDBRANCH   5   7
ENDBRANCH   3   5
BRANCH   1  45
ATOM     45  CA  GLY A   5      -7.195  50.798   2.428  0.00  0.00    +0.176 C 
BRANCH  45  47
ATOM     46  C   THR A   4      -4.912  51.311   1.625  0.00  0.00    +0.243 C 
ATOM     47  N   GLY A   5      -5.975  51.633   2.379  0.00  0.00    -0.295 N 
ATOM     48  H   GLY A   5      -5.939  52.502   2.950  0.00  0.00    +0.150 HD
ATOM     49  O   THR A   4      -4.878  50.297   0.928  0.00  0.00    -0.273 OA
BRANCH  46  50
ATOM     50  CA  THR A   4      -3.736  52.306   1.578  0.00  0.00    +0.176 C 
BRANCH  50  52
ATOM     51  C   ASP A   3      -5.032  54.379   1.269  0.00  0.00    +0.241 C 
ATOM     52  N   THR A   4      -4.140  53.666   1.955  0.00  0.00    -0.295 N 
ATOM     53  H   THR A   4      -3.709  54.094   2.799  0.00  0.00    +0.150 HD
ATOM     54  O   ASP A   3      -5.555  53.992   0.199  0.00  0.00    -0.273 OA
BRANCH  51  55
ATOM     55  CA  ASP A   3      -5.343  55.763   1.848  0.00  0.00    +0.160 C 
BRANCH  55  58
ATOM     56  C   LEU A   2      -3.792  57.663   2.014  0.00  0.00    +0.241 C 
ATOM     57  O   LEU A   2      -3.614  57.513   3.237  0.00  0.00    -0.273 OA
ATOM     58  N   ASP A   3      -4.454  56.787   1.258  0.00  0.00    -0.297 N 
ATOM     59  H   ASP A   3      -4.342  56.825   0.225  0.00  0.00    +0.150 HD
BRANCH  56  60
ATOM     60  CA  LEU A   2      -3.237  58.893   1.290  0.00  0.00    +0.149 C 
BRANCH  60  62
ATOM     61  C   LEU A   1      -5.222  60.266   1.508  0.00  0.00    +0.238 C 
ATOM     62  N   LEU A   2      -3.946  60.065   1.804  0.00  0.00    -0.297 N 
ATOM     63  H   LEU A   2      -3.444  60.747   2.408  0.00  0.00    +0.150 HD
ATOM     64  O   LEU A   1      -5.789  59.636   0.607  0.00  0.00    -0.274 OA
BRANCH  61  65
ATOM     65  CA  LEU A   1      -5.945  61.370   2.276  0.00  0.00    +0.145 C 
BRANCH  65  66
ATOM     66  N   LEU A   1      -6.483  62.323   1.370  0.00  0.00    -0.238 NA
ATOM     67  H   LEU A   1      -7.470  62.196   1.068  0.00  0.00    +0.142 HD
ENDBRANCH  65  66
BRANCH  65  68
ATOM     68  CB  LEU A   1      -7.159  60.820   3.054  0.00  0.00    +0.026 C 
BRANCH  68  69
ATOM     69  CG  LEU A   1      -7.059  60.309   4.442  0.00  0.00    +0.002 C 
ATOM     70  CD2 LEU A   1      -6.516  61.397   5.396  0.00  0.00    +0.000 C 
ATOM     71  CD1 LEU A   1      -8.461  59.824   4.799  0.00  0.00    +0.000 C 
ENDBRANCH  68  69
ENDBRANCH  65  68
ENDBRANCH  61  65
ENDBRANCH  60  62
BRANCH  60  72
ATOM     72  CB  LEU A   2      -1.732  58.993   1.516  0.00  0.00    +0.029 C 
BRANCH  72  73
ATOM     73  CG  LEU A   2      -1.072  60.235   0.904  0.00  0.00    +0.002 C 
ATOM     74  CD2 LEU A   2       0.396  60.297   1.413  0.00  0.00    +0.000 C 
ATOM     75  CD1 LEU A   2      -1.221  60.309  -0.634  0.00  0.00    +0.000 C 
ENDBRANCH  72  73
ENDBRANCH  60  72
ENDBRANCH  56  60
ENDBRANCH  55  58
BRANCH  55  76
ATOM     76  CB  ASP A   3      -6.784  56.174   1.580  0.00  0.00    +0.143 C 
BRANCH  76  77
ATOM     77  CG  ASP A   3      -7.793  55.361   2.350  0.00  0.00    +0.367 C 
ATOM     78  OD2 ASP A   3      -7.438  54.391   3.044  0.00  0.00    -0.246 OA
ATOM     79  OD1 ASP A   3      -8.979  55.725   2.266  0.00  0.00    -0.246 OA
ENDBRANCH  76  77
ENDBRANCH  55  76
ENDBRANCH  51  55
ENDBRANCH  50  52
BRANCH  50  80
ATOM     80  CB  THR A   4      -2.613  51.792   2.466  0.00  0.00    +0.137 C 
ATOM     81  CG2 THR A   4      -1.340  52.665   2.337  0.00  0.00    +0.034 C 
BRANCH  80  82
ATOM     82  OG1 THR A   4      -3.055  51.804   3.833  0.00  0.00    -0.382 OA
ATOM     83  HG1 THR A   4      -3.849  51.221   3.927  0.00  0.00    +0.210 HD
ENDBRANCH  80  82
ENDBRANCH  50  80
ENDBRANCH  46  50
ENDBRANCH  45  47
ENDBRANCH   1  45
TORSDOF 36
REMARK  Name = ../refined-set-2016/4m8x/4m8x_pocket.pdb
REMARK  221 active torsions:
REMARK  status: ('A' for Active; 'I' for Inactive)
REMARK    1  A    between atoms: _1  and  _3
REMARK    2  A    between atoms: _3  and  _4
REMARK    3  A    between atoms: _3  and  _6
REMARK    4  A    between atoms: _6  and  _7
REMARK    5  A    between atoms: _7  and  _8
REMARK    6  A    between atoms: _8  and  _9
REMARK    7  A    between atoms: _18  and  _20
REMARK    8  A    between atoms: _20  and  _21
REMARK    9  A    between atoms: _20  and  _23
REMARK   10  A    between atoms: _23  and  _24
REMARK   11  A    between atoms: _27  and  _29
REMARK   12  A    between atoms: _29  and  _30
REMARK   13  A    between atoms: _29  and  _32
REMARK   14  A    between atoms: _32  and  _33
REMARK   15  A    between atoms: _36  and  _38
REMARK   16  A    between atoms: _38  and  _39
REMARK   17  A    between atoms: _38  and  _41
REMARK   18  A    between atoms: _41  and  _42
REMARK   19  A    between atoms: _45  and  _47
REMARK   20  A    between atoms: _47  and  _48
REMARK   21  A    between atoms: _47  and  _50
REMARK   22  A    between atoms: _50  and  _51
REMARK   23  A    between atoms: _54  and  _56
REMARK   24  A    between atoms: _56  and  _57
REMARK   25  A    between atoms: _59  and  _61
REMARK   26  A    between atoms: _61  and  _62
REMARK   27  A    between atoms: _65  and  _67
REMARK   28  A    between atoms: _67  and  _68
REMARK   29  A    between atoms: _67  and  _70
REMARK   30  A    between atoms: _70  and  _71
REMARK   31  A    between atoms: _74  and  _76
REMARK   32  A    between atoms: _76  and  _77
REMARK   33  A    between atoms: _76  and  _79
REMARK   34  A    between atoms: _79  and  _80
REMARK   35  A    between atoms: _83  and  _85
REMARK   36  A    between atoms: _85  and  _86
REMARK   37  A    between atoms: _85  and  _88
REMARK   38  A    between atoms: _88  and  _89
REMARK   39  A    between atoms: _92  and  _94
REMARK   40  A    between atoms: _94  and  _95
REMARK   41  A    between atoms: _94  and  _97
REMARK   42  A    between atoms: _97  and  _98
REMARK   43  A    between atoms: _101  and  _103
REMARK   44  A    between atoms: _103  and  _104
REMARK   45  A    between atoms: _103  and  _106
REMARK   46  A    between atoms: _109  and  _111
REMARK   47  A    between atoms: _111  and  _112
REMARK   48  A    between atoms: _111  and  _114
REMARK   49  A    between atoms: _117  and  _119
REMARK   50  A    between atoms: _119  and  _120
REMARK   51  A    between atoms: _122  and  _124
REMARK   52  A    between atoms: _124  and  _125
REMARK   53  A    between atoms: _127  and  _129
REMARK   54  A    between atoms: _129  and  _130
REMARK   55  A    between atoms: _129  and  _132
REMARK   56  A    between atoms: _132  and  _133
REMARK   57  A    between atoms: _136  and  _138
REMARK   58  A    between atoms: _138  and  _139
REMARK   59  A    between atoms: _141  and  _143
REMARK   60  A    between atoms: _143  and  _144
REMARK   61  A    between atoms: _146  and  _148
REMARK   62  A    between atoms: _148  and  _149
REMARK   63  A    between atoms: _148  and  _151
REMARK   64  A    between atoms: _151  and  _152
REMARK   65  A    between atoms: _158  and  _160
REMARK   66  A    between atoms: _160  and  _161
REMARK   67  A    between atoms: _160  and  _163
REMARK   68  A    between atoms: _163  and  _164
REMARK   69  A    between atoms: _164  and  _165
REMARK   70  A    between atoms: _167  and  _169
REMARK   71  A    between atoms: _169  and  _170
REMARK   72  A    between atoms: _169  and  _172
REMARK   73  A    between atoms: _172  and  _173
REMARK   74  A    between atoms: _176  and  _178
REMARK   75  A    between atoms: _178  and  _179
REMARK   76  A    between atoms: _178  and  _181
REMARK   77  A    between atoms: _181  and  _182
REMARK   78  A    between atoms: _186  and  _187
REMARK   79  A    between atoms: _192  and  _194
REMARK   80  A    between atoms: _194  and  _195
REMARK   81  A    between atoms: _198  and  _200
REMARK   82  A    between atoms: _200  and  _201
REMARK   83  A    between atoms: _200  and  _203
REMARK   84  A    between atoms: _203  and  _204
REMARK   85  A    between atoms: _209  and  _211
REMARK   86  A    between atoms: _211  and  _212
REMARK   87  A    between atoms: _211  and  _214
REMARK   88  A    between atoms: _214  and  _215
REMARK   89  A    between atoms: _218  and  _220
REMARK   90  A    between atoms: _220  and  _221
REMARK   91  A    between atoms: _220  and  _223
REMARK   92  A    between atoms: _223  and  _224
REMARK   93  A    between atoms: _227  and  _229
REMARK   94  A    between atoms: _229  and  _230
REMARK   95  A    between atoms: _232  and  _234
REMARK   96  A    between atoms: _234  and  _235
REMARK   97  A    between atoms: _234  and  _237
REMARK   98  A    between atoms: _237  and  _238
REMARK   99  A    between atoms: _238  and  _239
REMARK  100  A    between atoms: _239  and  _240
REMARK  101  A    between atoms: _249  and  _251
REMARK  102  A    between atoms: _251  and  _252
REMARK  103  A    between atoms: _251  and  _254
REMARK  104  A    between atoms: _254  and  _255
REMARK  105  A    between atoms: _260  and  _262
REMARK  106  A    between atoms: _262  and  _263
REMARK  107  A    between atoms: _262  and  _265
REMARK  108  A    between atoms: _265  and  _266
REMARK  109  A    between atoms: _266  and  _267
REMARK  110  A    between atoms: _267  and  _268
REMARK  111  A    between atoms: _277  and  _279
REMARK  112  A    between atoms: _279  and  _280
REMARK  113  A    between atoms: _279  and  _282
REMARK  114  A    between atoms: _282  and  _283
REMARK  115  A    between atoms: _289  and  _291
REMARK  116  A    between atoms: _291  and  _292
REMARK  117  A    between atoms: _291  and  _294
REMARK  118  A    between atoms: _294  and  _295
REMARK  119  A    between atoms: _298  and  _300
REMARK  120  A    between atoms: _300  and  _301
REMARK  121  A    between atoms: _300  and  _303
REMARK  122  A    between atoms: _303  and  _304
REMARK  123  A    between atoms: _307  and  _309
REMARK  124  A    between atoms: _309  and  _310
REMARK  125  A    between atoms: _309  and  _312
REMARK  126  A    between atoms: _312  and  _313
REMARK  127  A    between atoms: _316  and  _318
REMARK  128  A    between atoms: _318  and  _319
REMARK  129  A    between atoms: _318  and  _321
REMARK  130  A    between atoms: _321  and  _322
REMARK  131  A    between atoms: _325  and  _327
REMARK  132  A    between atoms: _327  and  _328
REMARK  133  A    between atoms: _330  and  _332
REMARK  134  A    between atoms: _332  and  _333
REMARK  135  A    between atoms: _336  and  _338
REMARK  136  A    between atoms: _338  and  _339
REMARK  137  A    between atoms: _338  and  _341
REMARK  138  A    between atoms: _341  and  _342
REMARK  139  A    between atoms: _345  and  _347
REMARK  140  A    between atoms: _347  and  _348
REMARK  141  A    between atoms: _347  and  _350
REMARK  142  A    between atoms: _350  and  _351
REMARK  143  A    between atoms: _354  and  _356
REMARK  144  A    between atoms: _356  and  _357
REMARK  145  A    between atoms: _356  and  _359
REMARK  146  A    between atoms: _359  and  _360
REMARK  147  A    between atoms: _363  and  _365
REMARK  148  A    between atoms: _365  and  _366
REMARK  149  A    between atoms: _365  and  _368
REMARK  150  A    between atoms: _368  and  _369
REMARK  151  A    between atoms: _372  and  _374
REMARK  152  A    between atoms: _374  and  _375
REMARK  153  A    between atoms: _374  and  _377
REMARK  154  A    between atoms: _377  and  _378
REMARK  155  A    between atoms: _378  and  _379
REMARK  156  A    between atoms: _382  and  _384
REMARK  157  A    between atoms: _384  and  _385
REMARK  158  A    between atoms: _384  and  _387
REMARK  159  A    between atoms: _387  and  _388
REMARK  160  A    between atoms: _388  and  _389
REMARK  161  A    between atoms: _389  and  _390
REMARK  162  A    between atoms: _390  and  _391
REMARK  163  A    between atoms: _395  and  _397
REMARK  164  A    between atoms: _397  and  _398
REMARK  165  A    between atoms: _397  and  _400
REMARK  166  A    between atoms: _403  and  _405
REMARK  167  A    between atoms: _405  and  _406
REMARK  168  A    between atoms: _405  and  _408
REMARK  169  A    between atoms: _411  and  _413
REMARK  170  A    between atoms: _413  and  _414
REMARK  171  A    between atoms: _416  and  _418
REMARK  172  A    between atoms: _418  and  _419
REMARK  173  A    between atoms: _421  and  _423
REMARK  174  A    between atoms: _423  and  _424
REMARK  175  A    between atoms: _423  and  _426
REMARK  176  A    between atoms: _426  and  _427
REMARK  177  A    between atoms: _430  and  _432
REMARK  178  A    between atoms: _432  and  _433
REMARK  179  A    between atoms: _435  and  _437
REMARK  180  A    between atoms: _437  and  _438
REMARK  181  A    between atoms: _440  and  _442
REMARK  182  A    between atoms: _442  and  _443
REMARK  183  A    between atoms: _442  and  _445
REMARK  184  A    between atoms: _445  and  _446
REMARK  185  A    between atoms: _446  and  _447
REMARK  186  A    between atoms: _449  and  _451
REMARK  187  A    between atoms: _451  and  _452
REMARK  188  A    between atoms: _451  and  _454
REMARK  189  A    between atoms: _454  and  _455
REMARK  190  A    between atoms: _459  and  _460
REMARK  191  A    between atoms: _465  and  _467
REMARK  192  A    between atoms: _467  and  _468
REMARK  193  A    between atoms: _467  and  _470
REMARK  194  A    between atoms: _470  and  _471
REMARK  195  A    between atoms: _475  and  _476
REMARK  196  A    between atoms: _481  and  _483
REMARK  197  A    between atoms: _483  and  _484
REMARK  198  A    between atoms: _487  and  _489
REMARK  199  A    between atoms: _489  and  _490
REMARK  200  A    between atoms: _489  and  _492
REMARK  201  A    between atoms: _492  and  _493
REMARK  202  A    between atoms: _498  and  _500
REMARK  203  A    between atoms: _500  and  _501
REMARK  204  A    between atoms: _500  and  _503
REMARK  205  A    between atoms: _503  and  _504
REMARK  206  A    between atoms: _507  and  _509
REMARK  207  A    between atoms: _509  and  _510
REMARK  208  A    between atoms: _509  and  _512
REMARK  209  A    between atoms: _512  and  _513
REMARK  210  A    between atoms: _516  and  _518
REMARK  211  A    between atoms: _518  and  _519
REMARK  212  A    between atoms: _521  and  _523
REMARK  213  A    between atoms: _523  and  _524
REMARK  214  A    between atoms: _523  and  _526
REMARK  215  A    between atoms: _526  and  _527
REMARK  216  A    between atoms: _527  and  _528
REMARK  217  A    between atoms: _528  and  _529
REMARK  218  A    between atoms: _538  and  _540
REMARK  219  A    between atoms: _540  and  _541
REMARK  220  A    between atoms: _540  and  _543
REMARK  221  A    between atoms: _543  and  _544
REMARK                            x       y       z     vdW  Elec       q    Type
REMARK                         _______ _______ _______ _____ _____    ______ ____
ROOT
ATOM      1  CA  ILE A   5     -18.268  51.095   5.778  0.00  0.00    +0.149 C 
ENDROOT
BRANCH   1   3
ATOM      2  C   GLY A   4     -18.113  50.609   3.335  0.00  0.00    +0.243 C 
ATOM      3  N   ILE A   5     -17.596  51.140   4.458  0.00  0.00    -0.297 N 
ATOM      4  H   ILE A   5     -16.670  51.610   4.396  0.00  0.00    +0.150 HD
ATOM      5  O   GLY A   4     -19.078  49.846   3.298  0.00  0.00    -0.273 OA
BRANCH   2   6
ATOM      6  CA  GLY A   4     -17.437  50.990   2.062  0.00  0.00    +0.176 C 
BRANCH   6   8
ATOM      7  C   GLY A   3     -17.827  50.451  -0.260  0.00  0.00    +0.243 C 
ATOM      8  N   GLY A   4     -18.312  50.682   0.947  0.00  0.00    -0.295 N 
ATOM      9  H   GLY A   4     -19.340  50.642   1.100  0.00  0.00    +0.150 HD
ATOM     10  O   GLY A   3     -16.608  50.417  -0.499  0.00  0.00    -0.273 OA
BRANCH   7  11
ATOM     11  CA  GLY A   3     -18.848  50.205  -1.370  0.00  0.00    +0.176 C 
BRANCH  11  13
ATOM     12  C   VAL A   2     -19.011  51.738  -3.250  0.00  0.00    +0.241 C 
ATOM     13  N   GLY A   3     -18.394  50.735  -2.636  0.00  0.00    -0.295 N 
ATOM     14  H   GLY A   3     -17.553  50.316  -3.082  0.00  0.00    +0.150 HD
ATOM     15  O   VAL A   2     -19.937  52.368  -2.744  0.00  0.00    -0.273 OA
BRANCH  12  16
ATOM     16  CA  VAL A   2     -18.493  52.089  -4.650  0.00  0.00    +0.148 C 
BRANCH  16  18
ATOM     17  C   VAL A   1     -20.021  51.941  -6.607  0.00  0.00    +0.238 C 
ATOM     18  N   VAL A   2     -19.589  52.588  -5.513  0.00  0.00    -0.297 N 
ATOM     19  H   VAL A   2     -20.047  53.486  -5.258  0.00  0.00    +0.150 HD
ATOM     20  O   VAL A   1     -19.443  50.953  -7.086  0.00  0.00    -0.274 OA
BRANCH  17  21
ATOM     21  CA  VAL A   1     -21.259  52.506  -7.325  0.00  0.00    +0.145 C 
BRANCH  21  22
ATOM     22  CB  VAL A   1     -22.555  51.691  -6.985  0.00  0.00    +0.025 C 
ATOM     23  CG2 VAL A   1     -22.947  51.866  -5.569  0.00  0.00    +0.002 C 
ATOM     24  CG1 VAL A   1     -23.725  52.123  -7.876  0.00  0.00    +0.002 C 
ENDBRANCH  21  22
BRANCH  21  25
ATOM     25  N   VAL A   1     -20.963  52.457  -8.779  0.00  0.00    -0.238 NA
ATOM     26  H   VAL A   1     -20.702  51.542  -9.199  0.00  0.00    +0.142 HD
ENDBRANCH  21  25
ENDBRANCH  17  21
ENDBRANCH  16  18
BRANCH  16  27
ATOM     27  CB  VAL A   2     -17.318  53.113  -4.482  0.00  0.00    +0.027 C 
ATOM     28  CG2 VAL A   2     -17.755  54.335  -3.628  0.00  0.00    +0.002 C 
ATOM     29  CG1 VAL A   2     -16.811  53.558  -5.825  0.00  0.00    +0.002 C 
ENDBRANCH  16  27
ENDBRANCH  12  16
ENDBRANCH  11  13
ENDBRANCH   7  11
ENDBRANCH   6   8
ENDBRANCH   2   6
ENDBRANCH   1   3
BRANCH   1  30
ATOM     30  C   ILE A   5     -19.562  51.901   5.636  0.00  0.00    +0.241 C 
ATOM     31  N   GLY A   6     -20.685  51.350   6.052  0.00  0.00    -0.295 N 
ATOM     32  H   GLY A   6     -20.679  50.399   6.472  0.00  0.00    +0.150 HD
ATOM     33  O   ILE A   5     -19.553  53.023   5.123  0.00  0.00    -0.273 OA
BRANCH  31  34
ATOM     34  CA  GLY A   6     -21.943  52.092   5.917  0.00  0.00    +0.176 C 
BRANCH  34  35
ATOM     35  C   GLY A   6     -22.742  51.843   4.644  0.00  0.00    +0.243 C 
ATOM     36  O   GLY A   6     -23.877  52.290   4.544  0.00  0.00    -0.273 OA
ATOM     37  N   GLY A   7     -22.172  51.145   3.665  0.00  0.00    -0.295 N 
ATOM     38  H   GLY A   7     -21.158  50.920   3.726  0.00  0.00    +0.150 HD
BRANCH  37  39
ATOM     39  CA  GLY A   7     -22.930  50.690   2.515  0.00  0.00    +0.176 C 
BRANCH  39  40
ATOM     40  C   GLY A   7     -22.295  51.181   1.240  0.00  0.00    +0.243 C 
ATOM     41  O   GLY A   7     -21.068  51.133   1.098  0.00  0.00    -0.273 OA
ATOM     42  N   PHE A   8     -23.120  51.707   0.341  0.00  0.00    -0.297 N 
ATOM     43  H   PHE A   8     -24.112  51.882   0.599  0.00  0.00    +0.150 HD
BRANCH  42  44
ATOM     44  CA  PHE A   8     -22.663  52.040  -0.987  0.00  0.00    +0.153 C 
BRANCH  44  45
ATOM     45  C   PHE A   8     -22.961  53.490  -1.359  0.00  0.00    +0.241 C 
ATOM     46  O   PHE A   8     -23.844  54.131  -0.789  0.00  0.00    -0.273 OA
ATOM     47  N   MET A   9     -22.236  53.971  -2.357  0.00  0.00    -0.298 N 
ATOM     48  H   MET A   9     -21.572  53.335  -2.843  0.00  0.00    +0.150 HD
BRANCH  47  49
ATOM     49  CA  MET A   9     -22.331  55.356  -2.803  0.00  0.00    +0.138 C 
BRANCH  49  50
ATOM     50  C   MET A   9     -22.221  55.432  -4.313  0.00  0.00    +0.227 C 
ATOM     51  O   MET A   9     -21.309  54.861  -4.889  0.00  0.00    -0.286 OA
ENDBRANCH  49  50
BRANCH  49  52
ATOM     52  CB  MET A   9     -21.173  56.146  -2.176  0.00  0.00    +0.039 C 
BRANCH  52  53
ATOM     53  CG  MET A   9     -21.035  57.564  -2.618  0.00  0.00    +0.060 C 
BRANCH  53  54
ATOM     54  SD  MET A   9     -19.585  58.290  -1.847  0.00  0.00    -0.139 S 
ATOM     55  CE  MET A   9     -18.298  57.817  -3.025  0.00  0.00    +0.069 C 
ENDBRANCH  53  54
ENDBRANCH  52  53
ENDBRANCH  49  52
ENDBRANCH  47  49
ENDBRANCH  44  45
BRANCH  44  56
ATOM     56  CB  PHE A   8     -23.339  51.125  -2.018  0.00  0.00    +0.055 C 
BRANCH  56  57
ATOM     57  CG  PHE A   8     -24.825  51.370  -2.187  0.00  0.00    -0.020 A 
ATOM     58  CD2 PHE A   8     -25.742  50.776  -1.330  0.00  0.00    -0.004 A 
ATOM     59  CE2 PHE A   8     -27.106  50.988  -1.492  0.00  0.00    -0.000 A 
ATOM     60  CZ  PHE A   8     -27.563  51.787  -2.521  0.00  0.00    -0.000 A 
ATOM     61  CE1 PHE A   8     -26.664  52.374  -3.389  0.00  0.00    -0.000 A 
ATOM     62  CD1 PHE A   8     -25.303  52.166  -3.222  0.00  0.00    -0.004 A 
ENDBRANCH  56  57
ENDBRANCH  44  56
ENDBRANCH  42  44
ENDBRANCH  39  40
ENDBRANCH  37  39
ENDBRANCH  34  35
ENDBRANCH  31  34
ENDBRANCH   1  30
BRANCH   1  63
ATOM     63  CB  ILE A   5     -17.381  51.709   6.952  0.00  0.00    +0.027 C 
ATOM     64  CG2 ILE A   5     -18.233  52.387   8.022  0.00  0.00    +0.002 C 
BRANCH  63  65
ATOM     65  CG1 ILE A   5     -16.609  50.621   7.713  0.00  0.00    +0.002 C 
ATOM     66  CD1 ILE A   5     -15.504  49.974   6.957  0.00  0.00    +0.000 C 
ENDBRANCH  63  65
ENDBRANCH   1  63
TORSDOF 27
REMARK  Name = ../refined-set-2016/4m8x/4m8x_pocket.pdb
REMARK  221 active torsions:
REMARK  status: ('A' for Active; 'I' for Inactive)
REMARK    1  A    between atoms: _1  and  _3
REMARK    2  A    between atoms: _3  and  _4
REMARK    3  A    between atoms: _3  and  _6
REMARK    4  A    between atoms: _6  and  _7
REMARK    5  A    between atoms: _7  and  _8
REMARK    6  A    between atoms: _8  and  _9
REMARK    7  A    between atoms: _18  and  _20
REMARK    8  A    between atoms: _20  and  _21
REMARK    9  A    between atoms: _20  and  _23
REMARK   10  A    between atoms: _23  and  _24
REMARK   11  A    between atoms: _27  and  _29
REMARK   12  A    between atoms: _29  and  _30
REMARK   13  A    between atoms: _29  and  _32
REMARK   14  A    between atoms: _32  and  _33
REMARK   15  A    between atoms: _36  and  _38
REMARK   16  A    between atoms: _38  and  _39
REMARK   17  A    between atoms: _38  and  _41
REMARK   18  A    between atoms: _41  and  _42
REMARK   19  A    between atoms: _45  and  _47
REMARK   20  A    between atoms: _47  and  _48
REMARK   21  A    between atoms: _47  and  _50
REMARK   22  A    between atoms: _50  and  _51
REMARK   23  A    between atoms: _54  and  _56
REMARK   24  A    between atoms: _56  and  _57
REMARK   25  A    between atoms: _59  and  _61
REMARK   26  A    between atoms: _61  and  _62
REMARK   27  A    between atoms: _65  and  _67
REMARK   28  A    between atoms: _67  and  _68
REMARK   29  A    between atoms: _67  and  _70
REMARK   30  A    between atoms: _70  and  _71
REMARK   31  A    between atoms: _74  and  _76
REMARK   32  A    between atoms: _76  and  _77
REMARK   33  A    between atoms: _76  and  _79
REMARK   34  A    between atoms: _79  and  _80
REMARK   35  A    between atoms: _83  and  _85
REMARK   36  A    between atoms: _85  and  _86
REMARK   37  A    between atoms: _85  and  _88
REMARK   38  A    between atoms: _88  and  _89
REMARK   39  A    between atoms: _92  and  _94
REMARK   40  A    between atoms: _94  and  _95
REMARK   41  A    between atoms: _94  and  _97
REMARK   42  A    between atoms: _97  and  _98
REMARK   43  A    between atoms: _101  and  _103
REMARK   44  A    between atoms: _103  and  _104
REMARK   45  A    between atoms: _103  and  _106
REMARK   46  A    between atoms: _109  and  _111
REMARK   47  A    between atoms: _111  and  _112
REMARK   48  A    between atoms: _111  and  _114
REMARK   49  A    between atoms: _117  and  _119
REMARK   50  A    between atoms: _119  and  _120
REMARK   51  A    between atoms: _122  and  _124
REMARK   52  A    between atoms: _124  and  _125
REMARK   53  A    between atoms: _127  and  _129
REMARK   54  A    between atoms: _129  and  _130
REMARK   55  A    between atoms: _129  and  _132
REMARK   56  A    between atoms: _132  and  _133
REMARK   57  A    between atoms: _136  and  _138
REMARK   58  A    between atoms: _138  and  _139
REMARK   59  A    between atoms: _141  and  _143
REMARK   60  A    between atoms: _143  and  _144
REMARK   61  A    between atoms: _146  and  _148
REMARK   62  A    between atoms: _148  and  _149
REMARK   63  A    between atoms: _148  and  _151
REMARK   64  A    between atoms: _151  and  _152
REMARK   65  A    between atoms: _158  and  _160
REMARK   66  A    between atoms: _160  and  _161
REMARK   67  A    between atoms: _160  and  _163
REMARK   68  A    between atoms: _163  and  _164
REMARK   69  A    between atoms: _164  and  _165
REMARK   70  A    between atoms: _167  and  _169
REMARK   71  A    between atoms: _169  and  _170
REMARK   72  A    between atoms: _169  and  _172
REMARK   73  A    between atoms: _172  and  _173
REMARK   74  A    between atoms: _176  and  _178
REMARK   75  A    between atoms: _178  and  _179
REMARK   76  A    between atoms: _178  and  _181
REMARK   77  A    between atoms: _181  and  _182
REMARK   78  A    between atoms: _186  and  _187
REMARK   79  A    between atoms: _192  and  _194
REMARK   80  A    between atoms: _194  and  _195
REMARK   81  A    between atoms: _198  and  _200
REMARK   82  A    between atoms: _200  and  _201
REMARK   83  A    between atoms: _200  and  _203
REMARK   84  A    between atoms: _203  and  _204
REMARK   85  A    between atoms: _209  and  _211
REMARK   86  A    between atoms: _211  and  _212
REMARK   87  A    between atoms: _211  and  _214
REMARK   88  A    between atoms: _214  and  _215
REMARK   89  A    between atoms: _218  and  _220
REMARK   90  A    between atoms: _220  and  _221
REMARK   91  A    between atoms: _220  and  _223
REMARK   92  A    between atoms: _223  and  _224
REMARK   93  A    between atoms: _227  and  _229
REMARK   94  A    between atoms: _229  and  _230
REMARK   95  A    between atoms: _232  and  _234
REMARK   96  A    between atoms: _234  and  _235
REMARK   97  A    between atoms: _234  and  _237
REMARK   98  A    between atoms: _237  and  _238
REMARK   99  A    between atoms: _238  and  _239
REMARK  100  A    between atoms: _239  and  _240
REMARK  101  A    between atoms: _249  and  _251
REMARK  102  A    between atoms: _251  and  _252
REMARK  103  A    between atoms: _251  and  _254
REMARK  104  A    between atoms: _254  and  _255
REMARK  105  A    between atoms: _260  and  _262
REMARK  106  A    between atoms: _262  and  _263
REMARK  107  A    between atoms: _262  and  _265
REMARK  108  A    between atoms: _265  and  _266
REMARK  109  A    between atoms: _266  and  _267
REMARK  110  A    between atoms: _267  and  _268
REMARK  111  A    between atoms: _277  and  _279
REMARK  112  A    between atoms: _279  and  _280
REMARK  113  A    between atoms: _279  and  _282
REMARK  114  A    between atoms: _282  and  _283
REMARK  115  A    between atoms: _289  and  _291
REMARK  116  A    between atoms: _291  and  _292
REMARK  117  A    between atoms: _291  and  _294
REMARK  118  A    between atoms: _294  and  _295
REMARK  119  A    between atoms: _298  and  _300
REMARK  120  A    between atoms: _300  and  _301
REMARK  121  A    between atoms: _300  and  _303
REMARK  122  A    between atoms: _303  and  _304
REMARK  123  A    between atoms: _307  and  _309
REMARK  124  A    between atoms: _309  and  _310
REMARK  125  A    between atoms: _309  and  _312
REMARK  126  A    between atoms: _312  and  _313
REMARK  127  A    between atoms: _316  and  _318
REMARK  128  A    between atoms: _318  and  _319
REMARK  129  A    between atoms: _318  and  _321
REMARK  130  A    between atoms: _321  and  _322
REMARK  131  A    between atoms: _325  and  _327
REMARK  132  A    between atoms: _327  and  _328
REMARK  133  A    between atoms: _330  and  _332
REMARK  134  A    between atoms: _332  and  _333
REMARK  135  A    between atoms: _336  and  _338
REMARK  136  A    between atoms: _338  and  _339
REMARK  137  A    between atoms: _338  and  _341
REMARK  138  A    between atoms: _341  and  _342
REMARK  139  A    between atoms: _345  and  _347
REMARK  140  A    between atoms: _347  and  _348
REMARK  141  A    between atoms: _347  and  _350
REMARK  142  A    between atoms: _350  and  _351
REMARK  143  A    between atoms: _354  and  _356
REMARK  144  A    between atoms: _356  and  _357
REMARK  145  A    between atoms: _356  and  _359
REMARK  146  A    between atoms: _359  and  _360
REMARK  147  A    between atoms: _363  and  _365
REMARK  148  A    between atoms: _365  and  _366
REMARK  149  A    between atoms: _365  and  _368
REMARK  150  A    between atoms: _368  and  _369
REMARK  151  A    between atoms: _372  and  _374
REMARK  152  A    between atoms: _374  and  _375
REMARK  153  A    between atoms: _374  and  _377
REMARK  154  A    between atoms: _377  and  _378
REMARK  155  A    between atoms: _378  and  _379
REMARK  156  A    between atoms: _382  and  _384
REMARK  157  A    between atoms: _384  and  _385
REMARK  158  A    between atoms: _384  and  _387
REMARK  159  A    between atoms: _387  and  _388
REMARK  160  A    between atoms: _388  and  _389
REMARK  161  A    between atoms: _389  and  _390
REMARK  162  A    between atoms: _390  and  _391
REMARK  163  A    between atoms: _395  and  _397
REMARK  164  A    between atoms: _397  and  _398
REMARK  165  A    between atoms: _397  and  _400
REMARK  166  A    between atoms: _403  and  _405
REMARK  167  A    between atoms: _405  and  _406
REMARK  168  A    between atoms: _405  and  _408
REMARK  169  A    between atoms: _411  and  _413
REMARK  170  A    between atoms: _413  and  _414
REMARK  171  A    between atoms: _416  and  _418
REMARK  172  A    between atoms: _418  and  _419
REMARK  173  A    between atoms: _421  and  _423
REMARK  174  A    between atoms: _423  and  _424
REMARK  175  A    between atoms: _423  and  _426
REMARK  176  A    between atoms: _426  and  _427
REMARK  177  A    between atoms: _430  and  _432
REMARK  178  A    between atoms: _432  and  _433
REMARK  179  A    between atoms: _435  and  _437
REMARK  180  A    between atoms: _437  and  _438
REMARK  181  A    between atoms: _440  and  _442
REMARK  182  A    between atoms: _442  and  _443
REMARK  183  A    between atoms: _442  and  _445
REMARK  184  A    between atoms: _445  and  _446
REMARK  185  A    between atoms: _446  and  _447
REMARK  186  A    between atoms: _449  and  _451
REMARK  187  A    between atoms: _451  and  _452
REMARK  188  A    between atoms: _451  and  _454
REMARK  189  A    between atoms: _454  and  _455
REMARK  190  A    between atoms: _459  and  _460
REMARK  191  A    between atoms: _465  and  _467
REMARK  192  A    between atoms: _467  and  _468
REMARK  193  A    between atoms: _467  and  _470
REMARK  194  A    between atoms: _470  and  _471
REMARK  195  A    between atoms: _475  and  _476
REMARK  196  A    between atoms: _481  and  _483
REMARK  197  A    between atoms: _483  and  _484
REMARK  198  A    between atoms: _487  and  _489
REMARK  199  A    between atoms: _489  and  _490
REMARK  200  A    between atoms: _489  and  _492
REMARK  201  A    between atoms: _492  and  _493
REMARK  202  A    between atoms: _498  and  _500
REMARK  203  A    between atoms: _500  and  _501
REMARK  204  A    between atoms: _500  and  _503
REMARK  205  A    between atoms: _503  and  _504
REMARK  206  A    between atoms: _507  and  _509
REMARK  207  A    between atoms: _509  and  _510
REMARK  208  A    between atoms: _509  and  _512
REMARK  209  A    between atoms: _512  and  _513
REMARK  210  A    between atoms: _516  and  _518
REMARK  211  A    between atoms: _518  and  _519
REMARK  212  A    between atoms: _521  and  _523
REMARK  213  A    between atoms: _523  and  _524
REMARK  214  A    between atoms: _523  and  _526
REMARK  215  A    between atoms: _526  and  _527
REMARK  216  A    between atoms: _527  and  _528
REMARK  217  A    between atoms: _528  and  _529
REMARK  218  A    between atoms: _538  and  _540
REMARK  219  A    between atoms: _540  and  _541
REMARK  220  A    between atoms: _540  and  _543
REMARK  221  A    between atoms: _543  and  _544
REMARK                            x       y       z     vdW  Elec       q    Type
REMARK                         _______ _______ _______ _____ _____    ______ ____
ROOT
ATOM      1  CA  LEU A   1     -14.292  58.626  -9.057  0.00  0.00    +0.133 C 
ENDROOT
BRANCH   1   2
ATOM      2  N   LEU A   1     -12.836  58.671  -9.295  0.00  0.00    -0.239 NA
ATOM      3  H   LEU A   1     -12.193  58.361  -8.538  0.00  0.00    +0.142 HD
ENDBRANCH   1   2
BRANCH   1   4
ATOM      4  C   LEU A   1     -14.713  59.873  -8.251  0.00  0.00    +0.224 C 
ATOM      5  O   LEU A   1     -14.023  60.279  -7.311  0.00  0.00    -0.287 OA
ENDBRANCH   1   4
BRANCH   1   6
ATOM      6  CB  LEU A   1     -14.696  57.316  -8.351  0.00  0.00    +0.025 C 
BRANCH   6   7
ATOM      7  CG  LEU A   1     -14.086  55.997  -8.879  0.00  0.00    +0.002 C 
ATOM      8  CD2 LEU A   1     -14.335  54.808  -7.891  0.00  0.00    +0.000 C 
ATOM      9  CD1 LEU A   1     -14.604  55.673 -10.313  0.00  0.00    +0.000 C 
ENDBRANCH   6   7
ENDBRANCH   1   6
TORSDOF 4
REMARK  Name = ../refined-set-2016/4m8x/4m8x_pocket.pdb
REMARK  221 active torsions:
REMARK  status: ('A' for Active; 'I' for Inactive)
REMARK    1  A    between atoms: _1  and  _3
REMARK    2  A    between atoms: _3  and  _4
REMARK    3  A    between atoms: _3  and  _6
REMARK    4  A    between atoms: _6  and  _7
REMARK    5  A    between atoms: _7  and  _8
REMARK    6  A    between atoms: _8  and  _9
REMARK    7  A    between atoms: _18  and  _20
REMARK    8  A    between atoms: _20  and  _21
REMARK    9  A    between atoms: _20  and  _23
REMARK   10  A    between atoms: _23  and  _24
REMARK   11  A    between atoms: _27  and  _29
REMARK   12  A    between atoms: _29  and  _30
REMARK   13  A    between atoms: _29  and  _32
REMARK   14  A    between atoms: _32  and  _33
REMARK   15  A    between atoms: _36  and  _38
REMARK   16  A    between atoms: _38  and  _39
REMARK   17  A    between atoms: _38  and  _41
REMARK   18  A    between atoms: _41  and  _42
REMARK   19  A    between atoms: _45  and  _47
REMARK   20  A    between atoms: _47  and  _48
REMARK   21  A    between atoms: _47  and  _50
REMARK   22  A    between atoms: _50  and  _51
REMARK   23  A    between atoms: _54  and  _56
REMARK   24  A    between atoms: _56  and  _57
REMARK   25  A    between atoms: _59  and  _61
REMARK   26  A    between atoms: _61  and  _62
REMARK   27  A    between atoms: _65  and  _67
REMARK   28  A    between atoms: _67  and  _68
REMARK   29  A    between atoms: _67  and  _70
REMARK   30  A    between atoms: _70  and  _71
REMARK   31  A    between atoms: _74  and  _76
REMARK   32  A    between atoms: _76  and  _77
REMARK   33  A    between atoms: _76  and  _79
REMARK   34  A    between atoms: _79  and  _80
REMARK   35  A    between atoms: _83  and  _85
REMARK   36  A    between atoms: _85  and  _86
REMARK   37  A    between atoms: _85  and  _88
REMARK   38  A    between atoms: _88  and  _89
REMARK   39  A    between atoms: _92  and  _94
REMARK   40  A    between atoms: _94  and  _95
REMARK   41  A    between atoms: _94  and  _97
REMARK   42  A    between atoms: _97  and  _98
REMARK   43  A    between atoms: _101  and  _103
REMARK   44  A    between atoms: _103  and  _104
REMARK   45  A    between atoms: _103  and  _106
REMARK   46  A    between atoms: _109  and  _111
REMARK   47  A    between atoms: _111  and  _112
REMARK   48  A    between atoms: _111  and  _114
REMARK   49  A    between atoms: _117  and  _119
REMARK   50  A    between atoms: _119  and  _120
REMARK   51  A    between atoms: _122  and  _124
REMARK   52  A    between atoms: _124  and  _125
REMARK   53  A    between atoms: _127  and  _129
REMARK   54  A    between atoms: _129  and  _130
REMARK   55  A    between atoms: _129  and  _132
REMARK   56  A    between atoms: _132  and  _133
REMARK   57  A    between atoms: _136  and  _138
REMARK   58  A    between atoms: _138  and  _139
REMARK   59  A    between atoms: _141  and  _143
REMARK   60  A    between atoms: _143  and  _144
REMARK   61  A    between atoms: _146  and  _148
REMARK   62  A    between atoms: _148  and  _149
REMARK   63  A    between atoms: _148  and  _151
REMARK   64  A    between atoms: _151  and  _152
REMARK   65  A    between atoms: _158  and  _160
REMARK   66  A    between atoms: _160  and  _161
REMARK   67  A    between atoms: _160  and  _163
REMARK   68  A    between atoms: _163  and  _164
REMARK   69  A    between atoms: _164  and  _165
REMARK   70  A    between atoms: _167  and  _169
REMARK   71  A    between atoms: _169  and  _170
REMARK   72  A    between atoms: _169  and  _172
REMARK   73  A    between atoms: _172  and  _173
REMARK   74  A    between atoms: _176  and  _178
REMARK   75  A    between atoms: _178  and  _179
REMARK   76  A    between atoms: _178  and  _181
REMARK   77  A    between atoms: _181  and  _182
REMARK   78  A    between atoms: _186  and  _187
REMARK   79  A    between atoms: _192  and  _194
REMARK   80  A    between atoms: _194  and  _195
REMARK   81  A    between atoms: _198  and  _200
REMARK   82  A    between atoms: _200  and  _201
REMARK   83  A    between atoms: _200  and  _203
REMARK   84  A    between atoms: _203  and  _204
REMARK   85  A    between atoms: _209  and  _211
REMARK   86  A    between atoms: _211  and  _212
REMARK   87  A    between atoms: _211  and  _214
REMARK   88  A    between atoms: _214  and  _215
REMARK   89  A    between atoms: _218  and  _220
REMARK   90  A    between atoms: _220  and  _221
REMARK   91  A    between atoms: _220  and  _223
REMARK   92  A    between atoms: _223  and  _224
REMARK   93  A    between atoms: _227  and  _229
REMARK   94  A    between atoms: _229  and  _230
REMARK   95  A    between atoms: _232  and  _234
REMARK   96  A    between atoms: _234  and  _235
REMARK   97  A    between atoms: _234  and  _237
REMARK   98  A    between atoms: _237  and  _238
REMARK   99  A    between atoms: _238  and  _239
REMARK  100  A    between atoms: _239  and  _240
REMARK  101  A    between atoms: _249  and  _251
REMARK  102  A    between atoms: _251  and  _252
REMARK  103  A    between atoms: _251  and  _254
REMARK  104  A    between atoms: _254  and  _255
REMARK  105  A    between atoms: _260  and  _262
REMARK  106  A    between atoms: _262  and  _263
REMARK  107  A    between atoms: _262  and  _265
REMARK  108  A    between atoms: _265  and  _266
REMARK  109  A    between atoms: _266  and  _267
REMARK  110  A    between atoms: _267  and  _268
REMARK  111  A    between atoms: _277  and  _279
REMARK  112  A    between atoms: _279  and  _280
REMARK  113  A    between atoms: _279  and  _282
REMARK  114  A    between atoms: _282  and  _283
REMARK  115  A    between atoms: _289  and  _291
REMARK  116  A    between atoms: _291  and  _292
REMARK  117  A    between atoms: _291  and  _294
REMARK  118  A    between atoms: _294  and  _295
REMARK  119  A    between atoms: _298  and  _300
REMARK  120  A    between atoms: _300  and  _301
REMARK  121  A    between atoms: _300  and  _303
REMARK  122  A    between atoms: _303  and  _304
REMARK  123  A    between atoms: _307  and  _309
REMARK  124  A    between atoms: _309  and  _310
REMARK  125  A    between atoms: _309  and  _312
REMARK  126  A    between atoms: _312  and  _313
REMARK  127  A    between atoms: _316  and  _318
REMARK  128  A    between atoms: _318  and  _319
REMARK  129  A    between atoms: _318  and  _321
REMARK  130  A    between atoms: _321  and  _322
REMARK  131  A    between atoms: _325  and  _327
REMARK  132  A    between atoms: _327  and  _328
REMARK  133  A    between atoms: _330  and  _332
REMARK  134  A    between atoms: _332  and  _333
REMARK  135  A    between atoms: _336  and  _338
REMARK  136  A    between atoms: _338  and  _339
REMARK  137  A    between atoms: _338  and  _341
REMARK  138  A    between atoms: _341  and  _342
REMARK  139  A    between atoms: _345  and  _347
REMARK  140  A    between atoms: _347  and  _348
REMARK  141  A    between atoms: _347  and  _350
REMARK  142  A    between atoms: _350  and  _351
REMARK  143  A    between atoms: _354  and  _356
REMARK  144  A    between atoms: _356  and  _357
REMARK  145  A    between atoms: _356  and  _359
REMARK  146  A    between atoms: _359  and  _360
REMARK  147  A    between atoms: _363  and  _365
REMARK  148  A    between atoms: _365  and  _366
REMARK  149  A    between atoms: _365  and  _368
REMARK  150  A    between atoms: _368  and  _369
REMARK  151  A    between atoms: _372  and  _374
REMARK  152  A    between atoms: _374  and  _375
REMARK  153  A    between atoms: _374  and  _377
REMARK  154  A    between atoms: _377  and  _378
REMARK  155  A    between atoms: _378  and  _379
REMARK  156  A    between atoms: _382  and  _384
REMARK  157  A    between atoms: _384  and  _385
REMARK  158  A    between atoms: _384  and  _387
REMARK  159  A    between atoms: _387  and  _388
REMARK  160  A    between atoms: _388  and  _389
REMARK  161  A    between atoms: _389  and  _390
REMARK  162  A    between atoms: _390  and  _391
REMARK  163  A    between atoms: _395  and  _397
REMARK  164  A    between atoms: _397  and  _398
REMARK  165  A    between atoms: _397  and  _400
REMARK  166  A    between atoms: _403  and  _405
REMARK  167  A    between atoms: _405  and  _406
REMARK  168  A    between atoms: _405  and  _408
REMARK  169  A    between atoms: _411  and  _413
REMARK  170  A    between atoms: _413  and  _414
REMARK  171  A    between atoms: _416  and  _418
REMARK  172  A    between atoms: _418  and  _419
REMARK  173  A    between atoms: _421  and  _423
REMARK  174  A    between atoms: _423  and  _424
REMARK  175  A    between atoms: _423  and  _426
REMARK  176  A    between atoms: _426  and  _427
REMARK  177  A    between atoms: _430  and  _432
REMARK  178  A    between atoms: _432  and  _433
REMARK  179  A    between atoms: _435  and  _437
REMARK  180  A    between atoms: _437  and  _438
REMARK  181  A    between atoms: _440  and  _442
REMARK  182  A    between atoms: _442  and  _443
REMARK  183  A    between atoms: _442  and  _445
REMARK  184  A    between atoms: _445  and  _446
REMARK  185  A    between atoms: _446  and  _447
REMARK  186  A    between atoms: _449  and  _451
REMARK  187  A    between atoms: _451  and  _452
REMARK  188  A    between atoms: _451  and  _454
REMARK  189  A    between atoms: _454  and  _455
REMARK  190  A    between atoms: _459  and  _460
REMARK  191  A    between atoms: _465  and  _467
REMARK  192  A    between atoms: _467  and  _468
REMARK  193  A    between atoms: _467  and  _470
REMARK  194  A    between atoms: _470  and  _471
REMARK  195  A    between atoms: _475  and  _476
REMARK  196  A    between atoms: _481  and  _483
REMARK  197  A    between atoms: _483  and  _484
REMARK  198  A    between atoms: _487  and  _489
REMARK  199  A    between atoms: _489  and  _490
REMARK  200  A    between atoms: _489  and  _492
REMARK  201  A    between atoms: _492  and  _493
REMARK  202  A    between atoms: _498  and  _500
REMARK  203  A    between atoms: _500  and  _501
REMARK  204  A    between atoms: _500  and  _503
REMARK  205  A    between atoms: _503  and  _504
REMARK  206  A    between atoms: _507  and  _509
REMARK  207  A    between atoms: _509  and  _510
REMARK  208  A    between atoms: _509  and  _512
REMARK  209  A    between atoms: _512  and  _513
REMARK  210  A    between atoms: _516  and  _518
REMARK  211  A    between atoms: _518  and  _519
REMARK  212  A    between atoms: _521  and  _523
REMARK  213  A    between atoms: _523  and  _524
REMARK  214  A    between atoms: _523  and  _526
REMARK  215  A    between atoms: _526  and  _527
REMARK  216  A    between atoms: _527  and  _528
REMARK  217  A    between atoms: _528  and  _529
REMARK  218  A    between atoms: _538  and  _540
REMARK  219  A    between atoms: _540  and  _541
REMARK  220  A    between atoms: _540  and  _543
REMARK  221  A    between atoms: _543  and  _544
REMARK                            x       y       z     vdW  Elec       q    Type
REMARK                         _______ _______ _______ _____ _____    ______ ____
ROOT
ATOM      1  C   ILE A   5      -8.275  59.463  -2.092  0.00  0.00    +0.241 C 
ATOM      2  N   ILE A   6      -6.974  59.289  -1.887  0.00  0.00    -0.297 N 
ATOM      3  H   ILE A   6      -6.579  59.506  -0.950  0.00  0.00    +0.150 HD
ATOM      4  O   ILE A   5      -8.764  59.396  -3.189  0.00  0.00    -0.273 OA
ENDROOT
BRANCH   2   5
ATOM      5  CA  ILE A   6      -6.075  58.801  -2.940  0.00  0.00    +0.149 C 
BRANCH   5   6
ATOM      6  C   ILE A   6      -5.867  57.309  -2.676  0.00  0.00    +0.241 C 
ATOM      7  O   ILE A   6      -5.237  56.949  -1.698  0.00  0.00    -0.273 OA
ATOM      8  N   GLY A   7      -6.439  56.468  -3.536  0.00  0.00    -0.295 N 
ATOM      9  H   GLY A   7      -6.965  56.871  -4.338  0.00  0.00    +0.150 HD
BRANCH   8  10
ATOM     10  CA  GLY A   7      -6.372  55.022  -3.420  0.00  0.00    +0.176 C 
BRANCH  10  11
ATOM     11  C   GLY A   7      -5.190  54.407  -4.140  0.00  0.00    +0.243 C 
ATOM     12  N   ARG A   8      -5.100  53.083  -4.063  0.00  0.00    -0.297 N 
ATOM     13  H   ARG A   8      -5.895  52.542  -3.667  0.00  0.00    +0.150 HD
ATOM     14  O   GLY A   7      -4.372  55.105  -4.759  0.00  0.00    -0.273 OA
BRANCH  12  15
ATOM     15  CA  ARG A   8      -3.897  52.362  -4.526  0.00  0.00    +0.149 C 
BRANCH  15  16
ATOM     16  C   ARG A   8      -3.609  52.496  -6.036  0.00  0.00    +0.241 C 
ATOM     17  O   ARG A   8      -2.439  52.421  -6.440  0.00  0.00    -0.273 OA
ATOM     18  N   ASN A   9      -4.645  52.696  -6.845  0.00  0.00    -0.298 N 
ATOM     19  H   ASN A   9      -5.609  52.643  -6.459  0.00  0.00    +0.150 HD
BRANCH  18  20
ATOM     20  CA  ASN A   9      -4.455  52.992  -8.281  0.00  0.00    +0.146 C 
BRANCH  20  21
ATOM     21  C   ASN A   9      -3.526  54.200  -8.559  0.00  0.00    +0.227 C 
ATOM     22  O   ASN A   9      -2.779  54.206  -9.530  0.00  0.00    -0.286 OA
ENDBRANCH  20  21
BRANCH  20  23
ATOM     23  CB  ASN A   9      -5.822  53.150  -9.000  0.00  0.00    +0.112 C 
BRANCH  23  24
ATOM     24  CG  ASN A   9      -6.496  54.507  -8.761  0.00  0.00    +0.222 C 
ATOM     25  OD1 ASN A   9      -6.786  54.867  -7.644  0.00  0.00    -0.275 OA
ATOM     26  ND2 ASN A   9      -6.759  55.246  -9.835  0.00  0.00    -0.329 N 
ATOM     27 HD21 ASN A   9      -7.230  56.167  -9.730  0.00  0.00    +0.145 HD
ATOM     28 HD22 ASN A   9      -6.494  54.902 -10.780  0.00  0.00    +0.145 HD
ENDBRANCH  23  24
ENDBRANCH  20  23
ENDBRANCH  18  20
ENDBRANCH  15  16
BRANCH  15  29
ATOM     29  CB  ARG A   8      -3.945  50.889  -4.138  0.00  0.00    +0.033 C 
BRANCH  29  30
ATOM     30  CG  ARG A   8      -3.820  50.667  -2.641  0.00  0.00    +0.045 C 
BRANCH  30  31
ATOM     31  CD  ARG A   8      -3.857  49.167  -2.236  0.00  0.00    +0.174 C 
BRANCH  31  32
ATOM     32  NE  ARG A   8      -5.050  48.466  -2.740  0.00  0.00    -0.265 N 
ATOM     33  HE  ARG A   8      -5.916  48.528  -2.168  0.00  0.00    +0.259 HD
ATOM     34  CZ  ARG A   8      -5.112  47.759  -3.868  0.00  0.00    +0.342 C 
ATOM     35  NH2 ARG A   8      -6.249  47.206  -4.229  0.00  0.00    -0.292 N 
ATOM     36 HH21 ARG A   8      -7.095  47.321  -3.635  0.00  0.00    +0.255 HD
ATOM     37 HH22 ARG A   8      -6.302  46.653  -5.108  0.00  0.00    +0.255 HD
ATOM     38  NH1 ARG A   8      -4.051  47.568  -4.638  0.00  0.00    -0.292 N 
ATOM     39 HH11 ARG A   8      -3.133  47.976  -4.369  0.00  0.00    +0.255 HD
ATOM     40 HH12 ARG A   8      -4.136  47.010  -5.512  0.00  0.00    +0.255 HD
ENDBRANCH  31  32
ENDBRANCH  30  31
ENDBRANCH  29  30
ENDBRANCH  15  29
ENDBRANCH  12  15
ENDBRANCH  10  11
ENDBRANCH   8  10
ENDBRANCH   5   6
BRANCH   5  41
ATOM     41  CB  ILE A   6      -4.720  59.541  -2.923  0.00  0.00    +0.027 C 
ATOM     42  CG2 ILE A   6      -3.799  59.014  -4.072  0.00  0.00    +0.002 C 
BRANCH  41  43
ATOM     43  CG1 ILE A   6      -4.949  61.050  -2.962  0.00  0.00    +0.002 C 
ATOM     44  CD1 ILE A   6      -5.647  61.553  -4.231  0.00  0.00    +0.000 C 
ENDBRANCH  41  43
ENDBRANCH   5  41
ENDBRANCH   2   5
BRANCH   1  45
ATOM     45  CA  ILE A   5      -9.166  59.707  -0.865  0.00  0.00    +0.149 C 
BRANCH  45  48
ATOM     46  C   ASN A   4      -9.970  61.972  -0.341  0.00  0.00    +0.241 C 
ATOM     47  O   ASN A   4      -9.241  62.079   0.662  0.00  0.00    -0.273 OA
ATOM     48  N   ILE A   5      -9.998  60.881  -1.108  0.00  0.00    -0.297 N 
ATOM     49  H   ILE A   5     -10.646  60.866  -1.921  0.00  0.00    +0.150 HD
BRANCH  46  50
ATOM     50  CA  ASN A   4     -10.965  63.110  -0.710  0.00  0.00    +0.158 C 
BRANCH  50  52
ATOM     51  C   ALA A   3     -12.539  62.551   1.026  0.00  0.00    +0.241 C 
ATOM     52  N   ASN A   4     -11.713  63.445   0.508  0.00  0.00    -0.297 N 
ATOM     53  H   ASN A   4     -11.595  64.375   0.959  0.00  0.00    +0.150 HD
ATOM     54  O   ALA A   3     -12.912  61.564   0.379  0.00  0.00    -0.273 OA
BRANCH  51  55
ATOM     55  CA  ALA A   3     -13.043  62.817   2.440  0.00  0.00    +0.149 C 
ATOM     56  CB  ALA A   3     -12.154  62.077   3.516  0.00  0.00    +0.031 C 
BRANCH  55  59
ATOM     57  C   PRO A   2     -15.303  62.966   3.400  0.00  0.00    +0.241 C 
ATOM     58  O   PRO A   2     -14.942  63.741   4.290  0.00  0.00    -0.273 OA
ATOM     59  N   ALA A   3     -14.446  62.412   2.536  0.00  0.00    -0.297 N 
ATOM     60  H   ALA A   3     -14.791  61.661   1.905  0.00  0.00    +0.150 HD
BRANCH  57  63
ATOM     61  C   THR A   1     -17.283  62.196   0.849  0.00  0.00    +0.244 C 
ATOM     62  N   PRO A   2     -17.158  61.732   2.101  0.00  0.00    -0.272 N 
ATOM     63  CA  PRO A   2     -16.805  62.583   3.260  0.00  0.00    +0.152 C 
ATOM     64  CB  PRO A   2     -17.255  61.739   4.452  0.00  0.00    +0.031 C 
ATOM     65  CG  PRO A   2     -17.202  60.335   3.956  0.00  0.00    +0.024 C 
ATOM     66  CD  PRO A   2     -17.544  60.370   2.516  0.00  0.00    +0.094 C 
ATOM     67  O   THR A   1     -17.293  63.399   0.589  0.00  0.00    -0.273 OA
BRANCH  61  68
ATOM     68  CA  THR A   1     -17.482  61.171  -0.272  0.00  0.00    +0.172 C 
BRANCH  68  69
ATOM     69  N   THR A   1     -18.404  61.743  -1.229  0.00  0.00    -0.236 NA
ATOM     70  H   THR A   1     -18.035  62.051  -2.151  0.00  0.00    +0.142 HD
ENDBRANCH  68  69
BRANCH  68  71
ATOM     71  CB  THR A   1     -16.110  60.771  -0.940  0.00  0.00    +0.135 C 
ATOM     72  CG2 THR A   1     -15.393  61.969  -1.580  0.00  0.00    +0.034 C 
BRANCH  71  73
ATOM     73  OG1 THR A   1     -15.254  60.185   0.046  0.00  0.00    -0.383 OA
ATOM     74  HG1 THR A   1     -14.393  59.934  -0.373  0.00  0.00    +0.210 HD
ENDBRANCH  71  73
ENDBRANCH  68  71
ENDBRANCH  61  68
ENDBRANCH  57  63
ENDBRANCH  55  59
ENDBRANCH  51  55
ENDBRANCH  50  52
BRANCH  50  75
ATOM     75  CB  ASN A   4     -10.237  64.341  -1.265  0.00  0.00    +0.114 C 
BRANCH  75  76
ATOM     76  CG  ASN A   4     -11.203  65.459  -1.711  0.00  0.00    +0.222 C 
ATOM     77  ND2 ASN A   4     -10.875  66.696  -1.349  0.00  0.00    -0.329 N 
ATOM     78 HD21 ASN A   4     -10.017  66.863  -0.786  0.00  0.00    +0.145 HD
ATOM     79 HD22 ASN A   4     -11.477  67.497  -1.629  0.00  0.00    +0.145 HD
ATOM     80  OD1 ASN A   4     -12.213  65.209  -2.380  0.00  0.00    -0.275 OA
ENDBRANCH  75  76
ENDBRANCH  50  75
ENDBRANCH  46  50
ENDBRANCH  45  48
BRANCH  45  81
ATOM     81  CB  ILE A   5     -10.038  58.424  -0.701  0.00  0.00    +0.027 C 
ATOM     82  CG2 ILE A   5      -9.165  57.193  -0.559  0.00  0.00    +0.002 C 
BRANCH  81  83
ATOM     83  CG1 ILE A   5     -11.010  58.517   0.465  0.00  0.00    +0.002 C 
ATOM     84  CD1 ILE A   5     -12.181  57.521   0.278  0.00  0.00    +0.000 C 
ENDBRANCH  81  83
ENDBRANCH  45  81
ENDBRANCH   1  45
TORSDOF 31
REMARK  Name = ../refined-set-2016/4m8x/4m8x_pocket.pdb
REMARK  221 active torsions:
REMARK  status: ('A' for Active; 'I' for Inactive)
REMARK    1  A    between atoms: _1  and  _3
REMARK    2  A    between atoms: _3  and  _4
REMARK    3  A    between atoms: _3  and  _6
REMARK    4  A    between atoms: _6  and  _7
REMARK    5  A    between atoms: _7  and  _8
REMARK    6  A    between atoms: _8  and  _9
REMARK    7  A    between atoms: _18  and  _20
REMARK    8  A    between atoms: _20  and  _21
REMARK    9  A    between atoms: _20  and  _23
REMARK   10  A    between atoms: _23  and  _24
REMARK   11  A    between atoms: _27  and  _29
REMARK   12  A    between atoms: _29  and  _30
REMARK   13  A    between atoms: _29  and  _32
REMARK   14  A    between atoms: _32  and  _33
REMARK   15  A    between atoms: _36  and  _38
REMARK   16  A    between atoms: _38  and  _39
REMARK   17  A    between atoms: _38  and  _41
REMARK   18  A    between atoms: _41  and  _42
REMARK   19  A    between atoms: _45  and  _47
REMARK   20  A    between atoms: _47  and  _48
REMARK   21  A    between atoms: _47  and  _50
REMARK   22  A    between atoms: _50  and  _51
REMARK   23  A    between atoms: _54  and  _56
REMARK   24  A    between atoms: _56  and  _57
REMARK   25  A    between atoms: _59  and  _61
REMARK   26  A    between atoms: _61  and  _62
REMARK   27  A    between atoms: _65  and  _67
REMARK   28  A    between atoms: _67  and  _68
REMARK   29  A    between atoms: _67  and  _70
REMARK   30  A    between atoms: _70  and  _71
REMARK   31  A    between atoms: _74  and  _76
REMARK   32  A    between atoms: _76  and  _77
REMARK   33  A    between atoms: _76  and  _79
REMARK   34  A    between atoms: _79  and  _80
REMARK   35  A    between atoms: _83  and  _85
REMARK   36  A    between atoms: _85  and  _86
REMARK   37  A    between atoms: _85  and  _88
REMARK   38  A    between atoms: _88  and  _89
REMARK   39  A    between atoms: _92  and  _94
REMARK   40  A    between atoms: _94  and  _95
REMARK   41  A    between atoms: _94  and  _97
REMARK   42  A    between atoms: _97  and  _98
REMARK   43  A    between atoms: _101  and  _103
REMARK   44  A    between atoms: _103  and  _104
REMARK   45  A    between atoms: _103  and  _106
REMARK   46  A    between atoms: _109  and  _111
REMARK   47  A    between atoms: _111  and  _112
REMARK   48  A    between atoms: _111  and  _114
REMARK   49  A    between atoms: _117  and  _119
REMARK   50  A    between atoms: _119  and  _120
REMARK   51  A    between atoms: _122  and  _124
REMARK   52  A    between atoms: _124  and  _125
REMARK   53  A    between atoms: _127  and  _129
REMARK   54  A    between atoms: _129  and  _130
REMARK   55  A    between atoms: _129  and  _132
REMARK   56  A    between atoms: _132  and  _133
REMARK   57  A    between atoms: _136  and  _138
REMARK   58  A    between atoms: _138  and  _139
REMARK   59  A    between atoms: _141  and  _143
REMARK   60  A    between atoms: _143  and  _144
REMARK   61  A    between atoms: _146  and  _148
REMARK   62  A    between atoms: _148  and  _149
REMARK   63  A    between atoms: _148  and  _151
REMARK   64  A    between atoms: _151  and  _152
REMARK   65  A    between atoms: _158  and  _160
REMARK   66  A    between atoms: _160  and  _161
REMARK   67  A    between atoms: _160  and  _163
REMARK   68  A    between atoms: _163  and  _164
REMARK   69  A    between atoms: _164  and  _165
REMARK   70  A    between atoms: _167  and  _169
REMARK   71  A    between atoms: _169  and  _170
REMARK   72  A    between atoms: _169  and  _172
REMARK   73  A    between atoms: _172  and  _173
REMARK   74  A    between atoms: _176  and  _178
REMARK   75  A    between atoms: _178  and  _179
REMARK   76  A    between atoms: _178  and  _181
REMARK   77  A    between atoms: _181  and  _182
REMARK   78  A    between atoms: _186  and  _187
REMARK   79  A    between atoms: _192  and  _194
REMARK   80  A    between atoms: _194  and  _195
REMARK   81  A    between atoms: _198  and  _200
REMARK   82  A    between atoms: _200  and  _201
REMARK   83  A    between atoms: _200  and  _203
REMARK   84  A    between atoms: _203  and  _204
REMARK   85  A    between atoms: _209  and  _211
REMARK   86  A    between atoms: _211  and  _212
REMARK   87  A    between atoms: _211  and  _214
REMARK   88  A    between atoms: _214  and  _215
REMARK   89  A    between atoms: _218  and  _220
REMARK   90  A    between atoms: _220  and  _221
REMARK   91  A    between atoms: _220  and  _223
REMARK   92  A    between atoms: _223  and  _224
REMARK   93  A    between atoms: _227  and  _229
REMARK   94  A    between atoms: _229  and  _230
REMARK   95  A    between atoms: _232  and  _234
REMARK   96  A    between atoms: _234  and  _235
REMARK   97  A    between atoms: _234  and  _237
REMARK   98  A    between atoms: _237  and  _238
REMARK   99  A    between atoms: _238  and  _239
REMARK  100  A    between atoms: _239  and  _240
REMARK  101  A    between atoms: _249  and  _251
REMARK  102  A    between atoms: _251  and  _252
REMARK  103  A    between atoms: _251  and  _254
REMARK  104  A    between atoms: _254  and  _255
REMARK  105  A    between atoms: _260  and  _262
REMARK  106  A    between atoms: _262  and  _263
REMARK  107  A    between atoms: _262  and  _265
REMARK  108  A    between atoms: _265  and  _266
REMARK  109  A    between atoms: _266  and  _267
REMARK  110  A    between atoms: _267  and  _268
REMARK  111  A    between atoms: _277  and  _279
REMARK  112  A    between atoms: _279  and  _280
REMARK  113  A    between atoms: _279  and  _282
REMARK  114  A    between atoms: _282  and  _283
REMARK  115  A    between atoms: _289  and  _291
REMARK  116  A    between atoms: _291  and  _292
REMARK  117  A    between atoms: _291  and  _294
REMARK  118  A    between atoms: _294  and  _295
REMARK  119  A    between atoms: _298  and  _300
REMARK  120  A    between atoms: _300  and  _301
REMARK  121  A    between atoms: _300  and  _303
REMARK  122  A    between atoms: _303  and  _304
REMARK  123  A    between atoms: _307  and  _309
REMARK  124  A    between atoms: _309  and  _310
REMARK  125  A    between atoms: _309  and  _312
REMARK  126  A    between atoms: _312  and  _313
REMARK  127  A    between atoms: _316  and  _318
REMARK  128  A    between atoms: _318  and  _319
REMARK  129  A    between atoms: _318  and  _321
REMARK  130  A    between atoms: _321  and  _322
REMARK  131  A    between atoms: _325  and  _327
REMARK  132  A    between atoms: _327  and  _328
REMARK  133  A    between atoms: _330  and  _332
REMARK  134  A    between atoms: _332  and  _333
REMARK  135  A    between atoms: _336  and  _338
REMARK  136  A    between atoms: _338  and  _339
REMARK  137  A    between atoms: _338  and  _341
REMARK  138  A    between atoms: _341  and  _342
REMARK  139  A    between atoms: _345  and  _347
REMARK  140  A    between atoms: _347  and  _348
REMARK  141  A    between atoms: _347  and  _350
REMARK  142  A    between atoms: _350  and  _351
REMARK  143  A    between atoms: _354  and  _356
REMARK  144  A    between atoms: _356  and  _357
REMARK  145  A    between atoms: _356  and  _359
REMARK  146  A    between atoms: _359  and  _360
REMARK  147  A    between atoms: _363  and  _365
REMARK  148  A    between atoms: _365  and  _366
REMARK  149  A    between atoms: _365  and  _368
REMARK  150  A    between atoms: _368  and  _369
REMARK  151  A    between atoms: _372  and  _374
REMARK  152  A    between atoms: _374  and  _375
REMARK  153  A    between atoms: _374  and  _377
REMARK  154  A    between atoms: _377  and  _378
REMARK  155  A    between atoms: _378  and  _379
REMARK  156  A    between atoms: _382  and  _384
REMARK  157  A    between atoms: _384  and  _385
REMARK  158  A    between atoms: _384  and  _387
REMARK  159  A    between atoms: _387  and  _388
REMARK  160  A    between atoms: _388  and  _389
REMARK  161  A    between atoms: _389  and  _390
REMARK  162  A    between atoms: _390  and  _391
REMARK  163  A    between atoms: _395  and  _397
REMARK  164  A    between atoms: _397  and  _398
REMARK  165  A    between atoms: _397  and  _400
REMARK  166  A    between atoms: _403  and  _405
REMARK  167  A    between atoms: _405  and  _406
REMARK  168  A    between atoms: _405  and  _408
REMARK  169  A    between atoms: _411  and  _413
REMARK  170  A    between atoms: _413  and  _414
REMARK  171  A    between atoms: _416  and  _418
REMARK  172  A    between atoms: _418  and  _419
REMARK  173  A    between atoms: _421  and  _423
REMARK  174  A    between atoms: _423  and  _424
REMARK  175  A    between atoms: _423  and  _426
REMARK  176  A    between atoms: _426  and  _427
REMARK  177  A    between atoms: _430  and  _432
REMARK  178  A    between atoms: _432  and  _433
REMARK  179  A    between atoms: _435  and  _437
REMARK  180  A    between atoms: _437  and  _438
REMARK  181  A    between atoms: _440  and  _442
REMARK  182  A    between atoms: _442  and  _443
REMARK  183  A    between atoms: _442  and  _445
REMARK  184  A    between atoms: _445  and  _446
REMARK  185  A    between atoms: _446  and  _447
REMARK  186  A    between atoms: _449  and  _451
REMARK  187  A    between atoms: _451  and  _452
REMARK  188  A    between atoms: _451  and  _454
REMARK  189  A    between atoms: _454  and  _455
REMARK  190  A    between atoms: _459  and  _460
REMARK  191  A    between atoms: _465  and  _467
REMARK  192  A    between atoms: _467  and  _468
REMARK  193  A    between atoms: _467  and  _470
REMARK  194  A    between atoms: _470  and  _471
REMARK  195  A    between atoms: _475  and  _476
REMARK  196  A    between atoms: _481  and  _483
REMARK  197  A    between atoms: _483  and  _484
REMARK  198  A    between atoms: _487  and  _489
REMARK  199  A    between atoms: _489  and  _490
REMARK  200  A    between atoms: _489  and  _492
REMARK  201  A    between atoms: _492  and  _493
REMARK  202  A    between atoms: _498  and  _500
REMARK  203  A    between atoms: _500  and  _501
REMARK  204  A    between atoms: _500  and  _503
REMARK  205  A    between atoms: _503  and  _504
REMARK  206  A    between atoms: _507  and  _509
REMARK  207  A    between atoms: _509  and  _510
REMARK  208  A    between atoms: _509  and  _512
REMARK  209  A    between atoms: _512  and  _513
REMARK  210  A    between atoms: _516  and  _518
REMARK  211  A    between atoms: _518  and  _519
REMARK  212  A    between atoms: _521  and  _523
REMARK  213  A    between atoms: _523  and  _524
REMARK  214  A    between atoms: _523  and  _526
REMARK  215  A    between atoms: _526  and  _527
REMARK  216  A    between atoms: _527  and  _528
REMARK  217  A    between atoms: _528  and  _529
REMARK  218  A    between atoms: _538  and  _540
REMARK  219  A    between atoms: _540  and  _541
REMARK  220  A    between atoms: _540  and  _543
REMARK  221  A    between atoms: _543  and  _544
REMARK                            x       y       z     vdW  Elec       q    Type
REMARK                         _______ _______ _______ _____ _____    ______ ____
ROOT
ATOM      1  NE  ARG A   1      -9.122  44.454  -2.007  0.00  0.00    -0.265 N 
ATOM      2  CZ  ARG A   1     -10.307  43.850  -1.909  0.00  0.00    +0.342 C 
ATOM      3  NH2 ARG A   1     -10.537  42.946  -0.940  0.00  0.00    -0.292 N 
ATOM      4 HH21 ARG A   1      -9.787  42.712  -0.258  0.00  0.00    +0.255 HD
ATOM      5 HH22 ARG A   1     -11.465  42.481  -0.872  0.00  0.00    +0.255 HD
ATOM      6  NH1 ARG A   1     -11.271  44.160  -2.791  0.00  0.00    -0.292 N 
ATOM      7 HH11 ARG A   1     -12.201  43.698  -2.729  0.00  0.00    +0.255 HD
ATOM      8 HH12 ARG A   1     -11.088  44.862  -3.536  0.00  0.00    +0.255 HD
ATOM      9  HE  ARG A   1      -9.002  45.161  -2.761  0.00  0.00    +0.259 HD
ENDROOT
BRANCH   1  10
ATOM     10  CD  ARG A   1      -7.988  44.198  -1.140  0.00  0.00    +0.174 C 
BRANCH  10  11
ATOM     11  CG  ARG A   1      -6.722  44.887  -1.604  0.00  0.00    +0.045 C 
BRANCH  11  12
ATOM     12  CB  ARG A   1      -5.604  44.491  -0.664  0.00  0.00    +0.029 C 
BRANCH  12  13
ATOM     13  CA  ARG A   1      -4.266  45.124  -0.964  0.00  0.00    +0.133 C 
BRANCH  13  14
ATOM     14  N   ARG A   1      -3.755  44.626  -2.246  0.00  0.00    -0.239 NA
ATOM     15  H   ARG A   1      -4.313  43.928  -2.778  0.00  0.00    +0.142 HD
ENDBRANCH  13  14
BRANCH  13  16
ATOM     16  C   ARG A   1      -3.279  44.734   0.130  0.00  0.00    +0.224 C 
ATOM     17  O   ARG A   1      -2.806  43.598   0.105  0.00  0.00    -0.287 OA
ENDBRANCH  13  16
ENDBRANCH  12  13
ENDBRANCH  11  12
ENDBRANCH  10  11
ENDBRANCH   1  10
TORSDOF 6
REMARK  Name = ../refined-set-2016/4m8x/4m8x_pocket.pdb
REMARK  221 active torsions:
REMARK  status: ('A' for Active; 'I' for Inactive)
REMARK    1  A    between atoms: _1  and  _3
REMARK    2  A    between atoms: _3  and  _4
REMARK    3  A    between atoms: _3  and  _6
REMARK    4  A    between atoms: _6  and  _7
REMARK    5  A    between atoms: _7  and  _8
REMARK    6  A    between atoms: _8  and  _9
REMARK    7  A    between atoms: _18  and  _20
REMARK    8  A    between atoms: _20  and  _21
REMARK    9  A    between atoms: _20  and  _23
REMARK   10  A    between atoms: _23  and  _24
REMARK   11  A    between atoms: _27  and  _29
REMARK   12  A    between atoms: _29  and  _30
REMARK   13  A    between atoms: _29  and  _32
REMARK   14  A    between atoms: _32  and  _33
REMARK   15  A    between atoms: _36  and  _38
REMARK   16  A    between atoms: _38  and  _39
REMARK   17  A    between atoms: _38  and  _41
REMARK   18  A    between atoms: _41  and  _42
REMARK   19  A    between atoms: _45  and  _47
REMARK   20  A    between atoms: _47  and  _48
REMARK   21  A    between atoms: _47  and  _50
REMARK   22  A    between atoms: _50  and  _51
REMARK   23  A    between atoms: _54  and  _56
REMARK   24  A    between atoms: _56  and  _57
REMARK   25  A    between atoms: _59  and  _61
REMARK   26  A    between atoms: _61  and  _62
REMARK   27  A    between atoms: _65  and  _67
REMARK   28  A    between atoms: _67  and  _68
REMARK   29  A    between atoms: _67  and  _70
REMARK   30  A    between atoms: _70  and  _71
REMARK   31  A    between atoms: _74  and  _76
REMARK   32  A    between atoms: _76  and  _77
REMARK   33  A    between atoms: _76  and  _79
REMARK   34  A    between atoms: _79  and  _80
REMARK   35  A    between atoms: _83  and  _85
REMARK   36  A    between atoms: _85  and  _86
REMARK   37  A    between atoms: _85  and  _88
REMARK   38  A    between atoms: _88  and  _89
REMARK   39  A    between atoms: _92  and  _94
REMARK   40  A    between atoms: _94  and  _95
REMARK   41  A    between atoms: _94  and  _97
REMARK   42  A    between atoms: _97  and  _98
REMARK   43  A    between atoms: _101  and  _103
REMARK   44  A    between atoms: _103  and  _104
REMARK   45  A    between atoms: _103  and  _106
REMARK   46  A    between atoms: _109  and  _111
REMARK   47  A    between atoms: _111  and  _112
REMARK   48  A    between atoms: _111  and  _114
REMARK   49  A    between atoms: _117  and  _119
REMARK   50  A    between atoms: _119  and  _120
REMARK   51  A    between atoms: _122  and  _124
REMARK   52  A    between atoms: _124  and  _125
REMARK   53  A    between atoms: _127  and  _129
REMARK   54  A    between atoms: _129  and  _130
REMARK   55  A    between atoms: _129  and  _132
REMARK   56  A    between atoms: _132  and  _133
REMARK   57  A    between atoms: _136  and  _138
REMARK   58  A    between atoms: _138  and  _139
REMARK   59  A    between atoms: _141  and  _143
REMARK   60  A    between atoms: _143  and  _144
REMARK   61  A    between atoms: _146  and  _148
REMARK   62  A    between atoms: _148  and  _149
REMARK   63  A    between atoms: _148  and  _151
REMARK   64  A    between atoms: _151  and  _152
REMARK   65  A    between atoms: _158  and  _160
REMARK   66  A    between atoms: _160  and  _161
REMARK   67  A    between atoms: _160  and  _163
REMARK   68  A    between atoms: _163  and  _164
REMARK   69  A    between atoms: _164  and  _165
REMARK   70  A    between atoms: _167  and  _169
REMARK   71  A    between atoms: _169  and  _170
REMARK   72  A    between atoms: _169  and  _172
REMARK   73  A    between atoms: _172  and  _173
REMARK   74  A    between atoms: _176  and  _178
REMARK   75  A    between atoms: _178  and  _179
REMARK   76  A    between atoms: _178  and  _181
REMARK   77  A    between atoms: _181  and  _182
REMARK   78  A    between atoms: _186  and  _187
REMARK   79  A    between atoms: _192  and  _194
REMARK   80  A    between atoms: _194  and  _195
REMARK   81  A    between atoms: _198  and  _200
REMARK   82  A    between atoms: _200  and  _201
REMARK   83  A    between atoms: _200  and  _203
REMARK   84  A    between atoms: _203  and  _204
REMARK   85  A    between atoms: _209  and  _211
REMARK   86  A    between atoms: _211  and  _212
REMARK   87  A    between atoms: _211  and  _214
REMARK   88  A    between atoms: _214  and  _215
REMARK   89  A    between atoms: _218  and  _220
REMARK   90  A    between atoms: _220  and  _221
REMARK   91  A    between atoms: _220  and  _223
REMARK   92  A    between atoms: _223  and  _224
REMARK   93  A    between atoms: _227  and  _229
REMARK   94  A    between atoms: _229  and  _230
REMARK   95  A    between atoms: _232  and  _234
REMARK   96  A    between atoms: _234  and  _235
REMARK   97  A    between atoms: _234  and  _237
REMARK   98  A    between atoms: _237  and  _238
REMARK   99  A    between atoms: _238  and  _239
REMARK  100  A    between atoms: _239  and  _240
REMARK  101  A    between atoms: _249  and  _251
REMARK  102  A    between atoms: _251  and  _252
REMARK  103  A    between atoms: _251  and  _254
REMARK  104  A    between atoms: _254  and  _255
REMARK  105  A    between atoms: _260  and  _262
REMARK  106  A    between atoms: _262  and  _263
REMARK  107  A    between atoms: _262  and  _265
REMARK  108  A    between atoms: _265  and  _266
REMARK  109  A    between atoms: _266  and  _267
REMARK  110  A    between atoms: _267  and  _268
REMARK  111  A    between atoms: _277  and  _279
REMARK  112  A    between atoms: _279  and  _280
REMARK  113  A    between atoms: _279  and  _282
REMARK  114  A    between atoms: _282  and  _283
REMARK  115  A    between atoms: _289  and  _291
REMARK  116  A    between atoms: _291  and  _292
REMARK  117  A    between atoms: _291  and  _294
REMARK  118  A    between atoms: _294  and  _295
REMARK  119  A    between atoms: _298  and  _300
REMARK  120  A    between atoms: _300  and  _301
REMARK  121  A    between atoms: _300  and  _303
REMARK  122  A    between atoms: _303  and  _304
REMARK  123  A    between atoms: _307  and  _309
REMARK  124  A    between atoms: _309  and  _310
REMARK  125  A    between atoms: _309  and  _312
REMARK  126  A    between atoms: _312  and  _313
REMARK  127  A    between atoms: _316  and  _318
REMARK  128  A    between atoms: _318  and  _319
REMARK  129  A    between atoms: _318  and  _321
REMARK  130  A    between atoms: _321  and  _322
REMARK  131  A    between atoms: _325  and  _327
REMARK  132  A    between atoms: _327  and  _328
REMARK  133  A    between atoms: _330  and  _332
REMARK  134  A    between atoms: _332  and  _333
REMARK  135  A    between atoms: _336  and  _338
REMARK  136  A    between atoms: _338  and  _339
REMARK  137  A    between atoms: _338  and  _341
REMARK  138  A    between atoms: _341  and  _342
REMARK  139  A    between atoms: _345  and  _347
REMARK  140  A    between atoms: _347  and  _348
REMARK  141  A    between atoms: _347  and  _350
REMARK  142  A    between atoms: _350  and  _351
REMARK  143  A    between atoms: _354  and  _356
REMARK  144  A    between atoms: _356  and  _357
REMARK  145  A    between atoms: _356  and  _359
REMARK  146  A    between atoms: _359  and  _360
REMARK  147  A    between atoms: _363  and  _365
REMARK  148  A    between atoms: _365  and  _366
REMARK  149  A    between atoms: _365  and  _368
REMARK  150  A    between atoms: _368  and  _369
REMARK  151  A    between atoms: _372  and  _374
REMARK  152  A    between atoms: _374  and  _375
REMARK  153  A    between atoms: _374  and  _377
REMARK  154  A    between atoms: _377  and  _378
REMARK  155  A    between atoms: _378  and  _379
REMARK  156  A    between atoms: _382  and  _384
REMARK  157  A    between atoms: _384  and  _385
REMARK  158  A    between atoms: _384  and  _387
REMARK  159  A    between atoms: _387  and  _388
REMARK  160  A    between atoms: _388  and  _389
REMARK  161  A    between atoms: _389  and  _390
REMARK  162  A    between atoms: _390  and  _391
REMARK  163  A    between atoms: _395  and  _397
REMARK  164  A    between atoms: _397  and  _398
REMARK  165  A    between atoms: _397  and  _400
REMARK  166  A    between atoms: _403  and  _405
REMARK  167  A    between atoms: _405  and  _406
REMARK  168  A    between atoms: _405  and  _408
REMARK  169  A    between atoms: _411  and  _413
REMARK  170  A    between atoms: _413  and  _414
REMARK  171  A    between atoms: _416  and  _418
REMARK  172  A    between atoms: _418  and  _419
REMARK  173  A    between atoms: _421  and  _423
REMARK  174  A    between atoms: _423  and  _424
REMARK  175  A    between atoms: _423  and  _426
REMARK  176  A    between atoms: _426  and  _427
REMARK  177  A    between atoms: _430  and  _432
REMARK  178  A    between atoms: _432  and  _433
REMARK  179  A    between atoms: _435  and  _437
REMARK  180  A    between atoms: _437  and  _438
REMARK  181  A    between atoms: _440  and  _442
REMARK  182  A    between atoms: _442  and  _443
REMARK  183  A    between atoms: _442  and  _445
REMARK  184  A    between atoms: _445  and  _446
REMARK  185  A    between atoms: _446  and  _447
REMARK  186  A    between atoms: _449  and  _451
REMARK  187  A    between atoms: _451  and  _452
REMARK  188  A    between atoms: _451  and  _454
REMARK  189  A    between atoms: _454  and  _455
REMARK  190  A    between atoms: _459  and  _460
REMARK  191  A    between atoms: _465  and  _467
REMARK  192  A    between atoms: _467  and  _468
REMARK  193  A    between atoms: _467  and  _470
REMARK  194  A    between atoms: _470  and  _471
REMARK  195  A    between atoms: _475  and  _476
REMARK  196  A    between atoms: _481  and  _483
REMARK  197  A    between atoms: _483  and  _484
REMARK  198  A    between atoms: _487  and  _489
REMARK  199  A    between atoms: _489  and  _490
REMARK  200  A    between atoms: _489  and  _492
REMARK  201  A    between atoms: _492  and  _493
REMARK  202  A    between atoms: _498  and  _500
REMARK  203  A    between atoms: _500  and  _501
REMARK  204  A    between atoms: _500  and  _503
REMARK  205  A    between atoms: _503  and  _504
REMARK  206  A    between atoms: _507  and  _509
REMARK  207  A    between atoms: _509  and  _510
REMARK  208  A    between atoms: _509  and  _512
REMARK  209  A    between atoms: _512  and  _513
REMARK  210  A    between atoms: _516  and  _518
REMARK  211  A    between atoms: _518  and  _519
REMARK  212  A    between atoms: _521  and  _523
REMARK  213  A    between atoms: _523  and  _524
REMARK  214  A    between atoms: _523  and  _526
REMARK  215  A    between atoms: _526  and  _527
REMARK  216  A    between atoms: _527  and  _528
REMARK  217  A    between atoms: _528  and  _529
REMARK  218  A    between atoms: _538  and  _540
REMARK  219  A    between atoms: _540  and  _541
REMARK  220  A    between atoms: _540  and  _543
REMARK  221  A    between atoms: _543  and  _544
REMARK                            x       y       z     vdW  Elec       q    Type
REMARK                         _______ _______ _______ _____ _____    ______ ____
ROOT
ATOM      1  CB  PHE A   1      -4.066  41.337   3.563  0.00  0.00    +0.051 C 
ENDROOT
BRANCH   1   2
ATOM      2  CG  PHE A   1      -5.487  41.646   3.225  0.00  0.00    -0.020 A 
ATOM      3  CD2 PHE A   1      -6.421  41.820   4.232  0.00  0.00    -0.004 A 
ATOM      4  CE2 PHE A   1      -7.752  42.103   3.934  0.00  0.00    -0.000 A 
ATOM      5  CZ  PHE A   1      -8.151  42.213   2.582  0.00  0.00    -0.000 A 
ATOM      6  CE1 PHE A   1      -7.229  42.019   1.580  0.00  0.00    -0.000 A 
ATOM      7  CD1 PHE A   1      -5.898  41.742   1.898  0.00  0.00    -0.004 A 
ENDBRANCH   1   2
BRANCH   1   8
ATOM      8  CA  PHE A   1      -3.319  42.512   4.194  0.00  0.00    +0.137 C 
BRANCH   8   9
ATOM      9  N   PHE A   1      -2.854  43.422   3.158  0.00  0.00    -0.239 NA
ATOM     10  H   PHE A   1      -2.783  43.065   2.184  0.00  0.00    +0.142 HD
ENDBRANCH   8   9
BRANCH   8  11
ATOM     11  C   PHE A   1      -2.167  41.987   5.015  0.00  0.00    +0.224 C 
ATOM     12  O   PHE A   1      -1.109  41.682   4.469  0.00  0.00    -0.287 OA
ENDBRANCH   8  11
ENDBRANCH   1   8
TORSDOF 4
REMARK  Name = ../refined-set-2016/4m8x/4m8x_pocket.pdb
REMARK  221 active torsions:
REMARK  status: ('A' for Active; 'I' for Inactive)
REMARK    1  A    between atoms: _1  and  _3
REMARK    2  A    between atoms: _3  and  _4
REMARK    3  A    between atoms: _3  and  _6
REMARK    4  A    between atoms: _6  and  _7
REMARK    5  A    between atoms: _7  and  _8
REMARK    6  A    between atoms: _8  and  _9
REMARK    7  A    between atoms: _18  and  _20
REMARK    8  A    between atoms: _20  and  _21
REMARK    9  A    between atoms: _20  and  _23
REMARK   10  A    between atoms: _23  and  _24
REMARK   11  A    between atoms: _27  and  _29
REMARK   12  A    between atoms: _29  and  _30
REMARK   13  A    between atoms: _29  and  _32
REMARK   14  A    between atoms: _32  and  _33
REMARK   15  A    between atoms: _36  and  _38
REMARK   16  A    between atoms: _38  and  _39
REMARK   17  A    between atoms: _38  and  _41
REMARK   18  A    between atoms: _41  and  _42
REMARK   19  A    between atoms: _45  and  _47
REMARK   20  A    between atoms: _47  and  _48
REMARK   21  A    between atoms: _47  and  _50
REMARK   22  A    between atoms: _50  and  _51
REMARK   23  A    between atoms: _54  and  _56
REMARK   24  A    between atoms: _56  and  _57
REMARK   25  A    between atoms: _59  and  _61
REMARK   26  A    between atoms: _61  and  _62
REMARK   27  A    between atoms: _65  and  _67
REMARK   28  A    between atoms: _67  and  _68
REMARK   29  A    between atoms: _67  and  _70
REMARK   30  A    between atoms: _70  and  _71
REMARK   31  A    between atoms: _74  and  _76
REMARK   32  A    between atoms: _76  and  _77
REMARK   33  A    between atoms: _76  and  _79
REMARK   34  A    between atoms: _79  and  _80
REMARK   35  A    between atoms: _83  and  _85
REMARK   36  A    between atoms: _85  and  _86
REMARK   37  A    between atoms: _85  and  _88
REMARK   38  A    between atoms: _88  and  _89
REMARK   39  A    between atoms: _92  and  _94
REMARK   40  A    between atoms: _94  and  _95
REMARK   41  A    between atoms: _94  and  _97
REMARK   42  A    between atoms: _97  and  _98
REMARK   43  A    between atoms: _101  and  _103
REMARK   44  A    between atoms: _103  and  _104
REMARK   45  A    between atoms: _103  and  _106
REMARK   46  A    between atoms: _109  and  _111
REMARK   47  A    between atoms: _111  and  _112
REMARK   48  A    between atoms: _111  and  _114
REMARK   49  A    between atoms: _117  and  _119
REMARK   50  A    between atoms: _119  and  _120
REMARK   51  A    between atoms: _122  and  _124
REMARK   52  A    between atoms: _124  and  _125
REMARK   53  A    between atoms: _127  and  _129
REMARK   54  A    between atoms: _129  and  _130
REMARK   55  A    between atoms: _129  and  _132
REMARK   56  A    between atoms: _132  and  _133
REMARK   57  A    between atoms: _136  and  _138
REMARK   58  A    between atoms: _138  and  _139
REMARK   59  A    between atoms: _141  and  _143
REMARK   60  A    between atoms: _143  and  _144
REMARK   61  A    between atoms: _146  and  _148
REMARK   62  A    between atoms: _148  and  _149
REMARK   63  A    between atoms: _148  and  _151
REMARK   64  A    between atoms: _151  and  _152
REMARK   65  A    between atoms: _158  and  _160
REMARK   66  A    between atoms: _160  and  _161
REMARK   67  A    between atoms: _160  and  _163
REMARK   68  A    between atoms: _163  and  _164
REMARK   69  A    between atoms: _164  and  _165
REMARK   70  A    between atoms: _167  and  _169
REMARK   71  A    between atoms: _169  and  _170
REMARK   72  A    between atoms: _169  and  _172
REMARK   73  A    between atoms: _172  and  _173
REMARK   74  A    between atoms: _176  and  _178
REMARK   75  A    between atoms: _178  and  _179
REMARK   76  A    between atoms: _178  and  _181
REMARK   77  A    between atoms: _181  and  _182
REMARK   78  A    between atoms: _186  and  _187
REMARK   79  A    between atoms: _192  and  _194
REMARK   80  A    between atoms: _194  and  _195
REMARK   81  A    between atoms: _198  and  _200
REMARK   82  A    between atoms: _200  and  _201
REMARK   83  A    between atoms: _200  and  _203
REMARK   84  A    between atoms: _203  and  _204
REMARK   85  A    between atoms: _209  and  _211
REMARK   86  A    between atoms: _211  and  _212
REMARK   87  A    between atoms: _211  and  _214
REMARK   88  A    between atoms: _214  and  _215
REMARK   89  A    between atoms: _218  and  _220
REMARK   90  A    between atoms: _220  and  _221
REMARK   91  A    between atoms: _220  and  _223
REMARK   92  A    between atoms: _223  and  _224
REMARK   93  A    between atoms: _227  and  _229
REMARK   94  A    between atoms: _229  and  _230
REMARK   95  A    between atoms: _232  and  _234
REMARK   96  A    between atoms: _234  and  _235
REMARK   97  A    between atoms: _234  and  _237
REMARK   98  A    between atoms: _237  and  _238
REMARK   99  A    between atoms: _238  and  _239
REMARK  100  A    between atoms: _239  and  _240
REMARK  101  A    between atoms: _249  and  _251
REMARK  102  A    between atoms: _251  and  _252
REMARK  103  A    between atoms: _251  and  _254
REMARK  104  A    between atoms: _254  and  _255
REMARK  105  A    between atoms: _260  and  _262
REMARK  106  A    between atoms: _262  and  _263
REMARK  107  A    between atoms: _262  and  _265
REMARK  108  A    between atoms: _265  and  _266
REMARK  109  A    between atoms: _266  and  _267
REMARK  110  A    between atoms: _267  and  _268
REMARK  111  A    between atoms: _277  and  _279
REMARK  112  A    between atoms: _279  and  _280
REMARK  113  A    between atoms: _279  and  _282
REMARK  114  A    between atoms: _282  and  _283
REMARK  115  A    between atoms: _289  and  _291
REMARK  116  A    between atoms: _291  and  _292
REMARK  117  A    between atoms: _291  and  _294
REMARK  118  A    between atoms: _294  and  _295
REMARK  119  A    between atoms: _298  and  _300
REMARK  120  A    between atoms: _300  and  _301
REMARK  121  A    between atoms: _300  and  _303
REMARK  122  A    between atoms: _303  and  _304
REMARK  123  A    between atoms: _307  and  _309
REMARK  124  A    between atoms: _309  and  _310
REMARK  125  A    between atoms: _309  and  _312
REMARK  126  A    between atoms: _312  and  _313
REMARK  127  A    between atoms: _316  and  _318
REMARK  128  A    between atoms: _318  and  _319
REMARK  129  A    between atoms: _318  and  _321
REMARK  130  A    between atoms: _321  and  _322
REMARK  131  A    between atoms: _325  and  _327
REMARK  132  A    between atoms: _327  and  _328
REMARK  133  A    between atoms: _330  and  _332
REMARK  134  A    between atoms: _332  and  _333
REMARK  135  A    between atoms: _336  and  _338
REMARK  136  A    between atoms: _338  and  _339
REMARK  137  A    between atoms: _338  and  _341
REMARK  138  A    between atoms: _341  and  _342
REMARK  139  A    between atoms: _345  and  _347
REMARK  140  A    between atoms: _347  and  _348
REMARK  141  A    between atoms: _347  and  _350
REMARK  142  A    between atoms: _350  and  _351
REMARK  143  A    between atoms: _354  and  _356
REMARK  144  A    between atoms: _356  and  _357
REMARK  145  A    between atoms: _356  and  _359
REMARK  146  A    between atoms: _359  and  _360
REMARK  147  A    between atoms: _363  and  _365
REMARK  148  A    between atoms: _365  and  _366
REMARK  149  A    between atoms: _365  and  _368
REMARK  150  A    between atoms: _368  and  _369
REMARK  151  A    between atoms: _372  and  _374
REMARK  152  A    between atoms: _374  and  _375
REMARK  153  A    between atoms: _374  and  _377
REMARK  154  A    between atoms: _377  and  _378
REMARK  155  A    between atoms: _378  and  _379
REMARK  156  A    between atoms: _382  and  _384
REMARK  157  A    between atoms: _384  and  _385
REMARK  158  A    between atoms: _384  and  _387
REMARK  159  A    between atoms: _387  and  _388
REMARK  160  A    between atoms: _388  and  _389
REMARK  161  A    between atoms: _389  and  _390
REMARK  162  A    between atoms: _390  and  _391
REMARK  163  A    between atoms: _395  and  _397
REMARK  164  A    between atoms: _397  and  _398
REMARK  165  A    between atoms: _397  and  _400
REMARK  166  A    between atoms: _403  and  _405
REMARK  167  A    between atoms: _405  and  _406
REMARK  168  A    between atoms: _405  and  _408
REMARK  169  A    between atoms: _411  and  _413
REMARK  170  A    between atoms: _413  and  _414
REMARK  171  A    between atoms: _416  and  _418
REMARK  172  A    between atoms: _418  and  _419
REMARK  173  A    between atoms: _421  and  _423
REMARK  174  A    between atoms: _423  and  _424
REMARK  175  A    between atoms: _423  and  _426
REMARK  176  A    between atoms: _426  and  _427
REMARK  177  A    between atoms: _430  and  _432
REMARK  178  A    between atoms: _432  and  _433
REMARK  179  A    between atoms: _435  and  _437
REMARK  180  A    between atoms: _437  and  _438
REMARK  181  A    between atoms: _440  and  _442
REMARK  182  A    between atoms: _442  and  _443
REMARK  183  A    between atoms: _442  and  _445
REMARK  184  A    between atoms: _445  and  _446
REMARK  185  A    between atoms: _446  and  _447
REMARK  186  A    between atoms: _449  and  _451
REMARK  187  A    between atoms: _451  and  _452
REMARK  188  A    between atoms: _451  and  _454
REMARK  189  A    between atoms: _454  and  _455
REMARK  190  A    between atoms: _459  and  _460
REMARK  191  A    between atoms: _465  and  _467
REMARK  192  A    between atoms: _467  and  _468
REMARK  193  A    between atoms: _467  and  _470
REMARK  194  A    between atoms: _470  and  _471
REMARK  195  A    between atoms: _475  and  _476
REMARK  196  A    between atoms: _481  and  _483
REMARK  197  A    between atoms: _483  and  _484
REMARK  198  A    between atoms: _487  and  _489
REMARK  199  A    between atoms: _489  and  _490
REMARK  200  A    between atoms: _489  and  _492
REMARK  201  A    between atoms: _492  and  _493
REMARK  202  A    between atoms: _498  and  _500
REMARK  203  A    between atoms: _500  and  _501
REMARK  204  A    between atoms: _500  and  _503
REMARK  205  A    between atoms: _503  and  _504
REMARK  206  A    between atoms: _507  and  _509
REMARK  207  A    between atoms: _509  and  _510
REMARK  208  A    between atoms: _509  and  _512
REMARK  209  A    between atoms: _512  and  _513
REMARK  210  A    between atoms: _516  and  _518
REMARK  211  A    between atoms: _518  and  _519
REMARK  212  A    between atoms: _521  and  _523
REMARK  213  A    between atoms: _523  and  _524
REMARK  214  A    between atoms: _523  and  _526
REMARK  215  A    between atoms: _526  and  _527
REMARK  216  A    between atoms: _527  and  _528
REMARK  217  A    between atoms: _528  and  _529
REMARK  218  A    between atoms: _538  and  _540
REMARK  219  A    between atoms: _540  and  _541
REMARK  220  A    between atoms: _540  and  _543
REMARK  221  A    between atoms: _543  and  _544
REMARK                            x       y       z     vdW  Elec       q    Type
REMARK                         _______ _______ _______ _____ _____    ______ ____
ROOT
ATOM      1  C   GLY A   5      -8.253  55.997   6.871  0.00  0.00    +0.243 C 
ATOM      2  N   ALA A   6      -7.963  55.060   7.801  0.00  0.00    -0.297 N 
ATOM      3  H   ALA A   6      -7.030  54.604   7.737  0.00  0.00    +0.150 HD
ATOM      4  O   GLY A   5      -9.277  56.683   6.879  0.00  0.00    -0.273 OA
ENDROOT
BRANCH   2   5
ATOM      5  CA  ALA A   6      -8.829  54.634   8.875  0.00  0.00    +0.149 C 
ATOM      6  CB  ALA A   6      -8.842  53.065   8.963  0.00  0.00    +0.031 C 
BRANCH   5   7
ATOM      7  C   ALA A   6      -8.286  55.229  10.191  0.00  0.00    +0.241 C 
ATOM      8  N   ASP A   7      -9.070  56.034  10.895  0.00  0.00    -0.297 N 
ATOM      9  H   ASP A   7     -10.015  56.288  10.543  0.00  0.00    +0.150 HD
ATOM     10  O   ALA A   6      -7.137  54.986  10.560  0.00  0.00    -0.273 OA
BRANCH   8  11
ATOM     11  CA  ASP A   7      -8.588  56.563  12.178  0.00  0.00    +0.160 C 
BRANCH  11  12
ATOM     12  C   ASP A   7      -8.538  55.428  13.184  0.00  0.00    +0.241 C 
ATOM     13  O   ASP A   7      -7.683  55.410  14.086  0.00  0.00    -0.273 OA
ATOM     14  N   ASP A   8      -9.476  54.491  13.032  0.00  0.00    -0.297 N 
ATOM     15  H   ASP A   8     -10.064  54.514  12.175  0.00  0.00    +0.150 HD
BRANCH  14  16
ATOM     16  CA  ASP A   8      -9.716  53.433  14.014  0.00  0.00    +0.160 C 
BRANCH  16  17
ATOM     17  C   ASP A   8      -9.658  52.047  13.390  0.00  0.00    +0.241 C 
ATOM     18  N   THR A   9      -9.446  51.073  14.268  0.00  0.00    -0.295 N 
ATOM     19  H   THR A   9      -9.323  51.334  15.267  0.00  0.00    +0.150 HD
ATOM     20  O   ASP A   8      -9.831  51.867  12.187  0.00  0.00    -0.273 OA
BRANCH  18  21
ATOM     21  CA  THR A   9      -9.376  49.670  13.918  0.00  0.00    +0.176 C 
BRANCH  21  22
ATOM     22  C   THR A   9     -10.779  49.073  14.057  0.00  0.00    +0.243 C 
ATOM     23  O   THR A   9     -11.435  49.236  15.095  0.00  0.00    -0.273 OA
ATOM     24  N   ILE A  10     -11.236  48.419  12.992  0.00  0.00    -0.298 N 
ATOM     25  H   ILE A  10     -10.630  48.345  12.150  0.00  0.00    +0.150 HD
BRANCH  24  26
ATOM     26  CA  ILE A  10     -12.564  47.800  12.965  0.00  0.00    +0.137 C 
BRANCH  26  27
ATOM     27  CB  ILE A  10     -13.584  48.515  12.027  0.00  0.00    +0.026 C 
ATOM     28  CG2 ILE A  10     -14.975  47.860  12.203  0.00  0.00    +0.002 C 
BRANCH  27  29
ATOM     29  CG1 ILE A  10     -13.601  50.050  12.257  0.00  0.00    +0.002 C 
ATOM     30  CD1 ILE A  10     -14.121  50.865  11.061  0.00  0.00    +0.000 C 
ENDBRANCH  27  29
ENDBRANCH  26  27
BRANCH  26  31
ATOM     31  C   ILE A  10     -12.424  46.372  12.478  0.00  0.00    +0.227 C 
ATOM     32  O   ILE A  10     -11.821  46.132  11.440  0.00  0.00    -0.286 OA
ENDBRANCH  26  31
ENDBRANCH  24  26
ENDBRANCH  21  22
BRANCH  21  33
ATOM     33  CB  THR A   9      -8.327  48.945  14.842  0.00  0.00    +0.137 C 
ATOM     34  CG2 THR A   9      -8.396  47.397  14.710  0.00  0.00    +0.034 C 
BRANCH  33  35
ATOM     35  OG1 THR A   9      -7.023  49.416  14.490  0.00  0.00    -0.382 OA
ATOM     36  HG1 THR A   9      -6.979  50.395  14.627  0.00  0.00    +0.210 HD
ENDBRANCH  33  35
ENDBRANCH  21  33
ENDBRANCH  18  21
ENDBRANCH  16  17
BRANCH  16  37
ATOM     37  CB  ASP A   8     -11.111  53.580  14.635  0.00  0.00    +0.143 C 
BRANCH  37  38
ATOM     38  CG  ASP A   8     -11.280  54.859  15.436  0.00  0.00    +0.367 C 
ATOM     39  OD2 ASP A   8     -10.304  55.350  16.080  0.00  0.00    -0.246 OA
ATOM     40  OD1 ASP A   8     -12.432  55.343  15.466  0.00  0.00    -0.246 OA
ENDBRANCH  37  38
ENDBRANCH  16  37
ENDBRANCH  14  16
ENDBRANCH  11  12
BRANCH  11  41
ATOM     41  CB  ASP A   7      -9.494  57.649  12.762  0.00  0.00    +0.143 C 
BRANCH  41  42
ATOM     42  CG  ASP A   7      -9.701  58.835  11.849  0.00  0.00    +0.367 C 
ATOM     43  OD2 ASP A   7     -10.741  59.483  12.107  0.00  0.00    -0.246 OA
ATOM     44  OD1 ASP A   7      -8.880  59.131  10.910  0.00  0.00    -0.246 OA
ENDBRANCH  41  42
ENDBRANCH  11  41
ENDBRANCH   8  11
ENDBRANCH   5   7
ENDBRANCH   2   5
BRANCH   1  45
ATOM     45  CA  GLY A   5      -7.214  56.230   5.786  0.00  0.00    +0.176 C 
BRANCH  45  48
ATOM     46  C   THR A   4      -4.938  55.681   6.546  0.00  0.00    +0.243 C 
ATOM     47  O   THR A   4      -4.903  56.671   7.264  0.00  0.00    -0.273 OA
ATOM     48  N   GLY A   5      -6.002  55.391   5.792  0.00  0.00    -0.295 N 
ATOM     49  H   GLY A   5      -5.974  54.544   5.189  0.00  0.00    +0.150 HD
BRANCH  46  50
ATOM     50  CA  THR A   4      -3.765  54.677   6.575  0.00  0.00    +0.176 C 
BRANCH  50  53
ATOM     51  C   ASP A   3      -5.029  52.609   6.918  0.00  0.00    +0.241 C 
ATOM     52  O   ASP A   3      -5.553  53.026   7.962  0.00  0.00    -0.273 OA
ATOM     53  N   THR A   4      -4.161  53.322   6.207  0.00  0.00    -0.295 N 
ATOM     54  H   THR A   4      -3.747  52.896   5.353  0.00  0.00    +0.150 HD
BRANCH  51  55
ATOM     55  CA  ASP A   3      -5.347  51.215   6.357  0.00  0.00    +0.160 C 
BRANCH  55  57
ATOM     56  C   LEU A   2      -3.790  49.324   6.223  0.00  0.00    +0.241 C 
ATOM     57  N   ASP A   3      -4.509  50.168   6.964  0.00  0.00    -0.297 N 
ATOM     58  H   ASP A   3      -4.477  50.084   8.000  0.00  0.00    +0.150 HD
ATOM     59  O   LEU A   2      -3.603  49.486   5.014  0.00  0.00    -0.273 OA
BRANCH  56  60
ATOM     60  CA  LEU A   2      -3.235  48.081   6.930  0.00  0.00    +0.149 C 
BRANCH  60  63
ATOM     61  C   LEU A   1      -5.204  46.717   6.624  0.00  0.00    +0.238 C 
ATOM     62  O   LEU A   1      -5.777  47.329   7.541  0.00  0.00    -0.274 OA
ATOM     63  N   LEU A   2      -3.924  46.918   6.360  0.00  0.00    -0.297 N 
ATOM     64  H   LEU A   2      -3.407  46.253   5.750  0.00  0.00    +0.150 HD
BRANCH  61  65
ATOM     65  CA  LEU A   1      -5.909  45.617   5.846  0.00  0.00    +0.145 C 
BRANCH  65  66
ATOM     66  N   LEU A   1      -6.445  44.689   6.773  0.00  0.00    -0.238 NA
ATOM     67  H   LEU A   1      -7.418  44.850   7.102  0.00  0.00    +0.142 HD
ENDBRANCH  65  66
BRANCH  65  68
ATOM     68  CB  LEU A   1      -7.119  46.145   5.051  0.00  0.00    +0.026 C 
BRANCH  68  69
ATOM     69  CG  LEU A   1      -7.022  46.594   3.632  0.00  0.00    +0.002 C 
ATOM     70  CD2 LEU A   1      -8.410  47.132   3.237  0.00  0.00    +0.000 C 
ATOM     71  CD1 LEU A   1      -6.524  45.469   2.727  0.00  0.00    +0.000 C 
ENDBRANCH  68  69
ENDBRANCH  65  68
ENDBRANCH  61  65
ENDBRANCH  60  63
BRANCH  60  72
ATOM     72  CB  LEU A   2      -1.727  47.990   6.734  0.00  0.00    +0.029 C 
BRANCH  72  73
ATOM     73  CG  LEU A   2      -1.072  46.750   7.352  0.00  0.00    +0.002 C 
ATOM     74  CD2 LEU A   2      -1.225  46.696   8.873  0.00  0.00    +0.000 C 
ATOM     75  CD1 LEU A   2       0.382  46.716   6.871  0.00  0.00    +0.000 C 
ENDBRANCH  72  73
ENDBRANCH  60  72
ENDBRANCH  56  60
ENDBRANCH  55  57
BRANCH  55  76
ATOM     76  CB  ASP A   3      -6.810  50.855   6.587  0.00  0.00    +0.143 C 
BRANCH  76  77
ATOM     77  CG  ASP A   3      -7.779  51.726   5.792  0.00  0.00    +0.367 C 
ATOM     78  OD2 ASP A   3      -8.990  51.451   5.908  0.00  0.00    -0.246 OA
ATOM     79  OD1 ASP A   3      -7.361  52.645   5.032  0.00  0.00    -0.246 OA
ENDBRANCH  76  77
ENDBRANCH  55  76
ENDBRANCH  51  55
ENDBRANCH  50  53
BRANCH  50  80
ATOM     80  CB  THR A   4      -2.620  55.159   5.699  0.00  0.00    +0.137 C 
ATOM     81  CG2 THR A   4      -1.379  54.237   5.847  0.00  0.00    +0.034 C 
BRANCH  80  82
ATOM     82  OG1 THR A   4      -3.058  55.178   4.331  0.00  0.00    -0.382 OA
ATOM     83  HG1 THR A   4      -3.830  55.791   4.241  0.00  0.00    +0.210 HD
ENDBRANCH  80  82
ENDBRANCH  50  80
ENDBRANCH  46  50
ENDBRANCH  45  48
ENDBRANCH   1  45
TORSDOF 36
REMARK  Name = ../refined-set-2016/4m8x/4m8x_pocket.pdb
REMARK  221 active torsions:
REMARK  status: ('A' for Active; 'I' for Inactive)
REMARK    1  A    between atoms: _1  and  _3
REMARK    2  A    between atoms: _3  and  _4
REMARK    3  A    between atoms: _3  and  _6
REMARK    4  A    between atoms: _6  and  _7
REMARK    5  A    between atoms: _7  and  _8
REMARK    6  A    between atoms: _8  and  _9
REMARK    7  A    between atoms: _18  and  _20
REMARK    8  A    between atoms: _20  and  _21
REMARK    9  A    between atoms: _20  and  _23
REMARK   10  A    between atoms: _23  and  _24
REMARK   11  A    between atoms: _27  and  _29
REMARK   12  A    between atoms: _29  and  _30
REMARK   13  A    between atoms: _29  and  _32
REMARK   14  A    between atoms: _32  and  _33
REMARK   15  A    between atoms: _36  and  _38
REMARK   16  A    between atoms: _38  and  _39
REMARK   17  A    between atoms: _38  and  _41
REMARK   18  A    between atoms: _41  and  _42
REMARK   19  A    between atoms: _45  and  _47
REMARK   20  A    between atoms: _47  and  _48
REMARK   21  A    between atoms: _47  and  _50
REMARK   22  A    between atoms: _50  and  _51
REMARK   23  A    between atoms: _54  and  _56
REMARK   24  A    between atoms: _56  and  _57
REMARK   25  A    between atoms: _59  and  _61
REMARK   26  A    between atoms: _61  and  _62
REMARK   27  A    between atoms: _65  and  _67
REMARK   28  A    between atoms: _67  and  _68
REMARK   29  A    between atoms: _67  and  _70
REMARK   30  A    between atoms: _70  and  _71
REMARK   31  A    between atoms: _74  and  _76
REMARK   32  A    between atoms: _76  and  _77
REMARK   33  A    between atoms: _76  and  _79
REMARK   34  A    between atoms: _79  and  _80
REMARK   35  A    between atoms: _83  and  _85
REMARK   36  A    between atoms: _85  and  _86
REMARK   37  A    between atoms: _85  and  _88
REMARK   38  A    between atoms: _88  and  _89
REMARK   39  A    between atoms: _92  and  _94
REMARK   40  A    between atoms: _94  and  _95
REMARK   41  A    between atoms: _94  and  _97
REMARK   42  A    between atoms: _97  and  _98
REMARK   43  A    between atoms: _101  and  _103
REMARK   44  A    between atoms: _103  and  _104
REMARK   45  A    between atoms: _103  and  _106
REMARK   46  A    between atoms: _109  and  _111
REMARK   47  A    between atoms: _111  and  _112
REMARK   48  A    between atoms: _111  and  _114
REMARK   49  A    between atoms: _117  and  _119
REMARK   50  A    between atoms: _119  and  _120
REMARK   51  A    between atoms: _122  and  _124
REMARK   52  A    between atoms: _124  and  _125
REMARK   53  A    between atoms: _127  and  _129
REMARK   54  A    between atoms: _129  and  _130
REMARK   55  A    between atoms: _129  and  _132
REMARK   56  A    between atoms: _132  and  _133
REMARK   57  A    between atoms: _136  and  _138
REMARK   58  A    between atoms: _138  and  _139
REMARK   59  A    between atoms: _141  and  _143
REMARK   60  A    between atoms: _143  and  _144
REMARK   61  A    between atoms: _146  and  _148
REMARK   62  A    between atoms: _148  and  _149
REMARK   63  A    between atoms: _148  and  _151
REMARK   64  A    between atoms: _151  and  _152
REMARK   65  A    between atoms: _158  and  _160
REMARK   66  A    between atoms: _160  and  _161
REMARK   67  A    between atoms: _160  and  _163
REMARK   68  A    between atoms: _163  and  _164
REMARK   69  A    between atoms: _164  and  _165
REMARK   70  A    between atoms: _167  and  _169
REMARK   71  A    between atoms: _169  and  _170
REMARK   72  A    between atoms: _169  and  _172
REMARK   73  A    between atoms: _172  and  _173
REMARK   74  A    between atoms: _176  and  _178
REMARK   75  A    between atoms: _178  and  _179
REMARK   76  A    between atoms: _178  and  _181
REMARK   77  A    between atoms: _181  and  _182
REMARK   78  A    between atoms: _186  and  _187
REMARK   79  A    between atoms: _192  and  _194
REMARK   80  A    between atoms: _194  and  _195
REMARK   81  A    between atoms: _198  and  _200
REMARK   82  A    between atoms: _200  and  _201
REMARK   83  A    between atoms: _200  and  _203
REMARK   84  A    between atoms: _203  and  _204
REMARK   85  A    between atoms: _209  and  _211
REMARK   86  A    between atoms: _211  and  _212
REMARK   87  A    between atoms: _211  and  _214
REMARK   88  A    between atoms: _214  and  _215
REMARK   89  A    between atoms: _218  and  _220
REMARK   90  A    between atoms: _220  and  _221
REMARK   91  A    between atoms: _220  and  _223
REMARK   92  A    between atoms: _223  and  _224
REMARK   93  A    between atoms: _227  and  _229
REMARK   94  A    between atoms: _229  and  _230
REMARK   95  A    between atoms: _232  and  _234
REMARK   96  A    between atoms: _234  and  _235
REMARK   97  A    between atoms: _234  and  _237
REMARK   98  A    between atoms: _237  and  _238
REMARK   99  A    between atoms: _238  and  _239
REMARK  100  A    between atoms: _239  and  _240
REMARK  101  A    between atoms: _249  and  _251
REMARK  102  A    between atoms: _251  and  _252
REMARK  103  A    between atoms: _251  and  _254
REMARK  104  A    between atoms: _254  and  _255
REMARK  105  A    between atoms: _260  and  _262
REMARK  106  A    between atoms: _262  and  _263
REMARK  107  A    between atoms: _262  and  _265
REMARK  108  A    between atoms: _265  and  _266
REMARK  109  A    between atoms: _266  and  _267
REMARK  110  A    between atoms: _267  and  _268
REMARK  111  A    between atoms: _277  and  _279
REMARK  112  A    between atoms: _279  and  _280
REMARK  113  A    between atoms: _279  and  _282
REMARK  114  A    between atoms: _282  and  _283
REMARK  115  A    between atoms: _289  and  _291
REMARK  116  A    between atoms: _291  and  _292
REMARK  117  A    between atoms: _291  and  _294
REMARK  118  A    between atoms: _294  and  _295
REMARK  119  A    between atoms: _298  and  _300
REMARK  120  A    between atoms: _300  and  _301
REMARK  121  A    between atoms: _300  and  _303
REMARK  122  A    between atoms: _303  and  _304
REMARK  123  A    between atoms: _307  and  _309
REMARK  124  A    between atoms: _309  and  _310
REMARK  125  A    between atoms: _309  and  _312
REMARK  126  A    between atoms: _312  and  _313
REMARK  127  A    between atoms: _316  and  _318
REMARK  128  A    between atoms: _318  and  _319
REMARK  129  A    between atoms: _318  and  _321
REMARK  130  A    between atoms: _321  and  _322
REMARK  131  A    between atoms: _325  and  _327
REMARK  132  A    between atoms: _327  and  _328
REMARK  133  A    between atoms: _330  and  _332
REMARK  134  A    between atoms: _332  and  _333
REMARK  135  A    between atoms: _336  and  _338
REMARK  136  A    between atoms: _338  and  _339
REMARK  137  A    between atoms: _338  and  _341
REMARK  138  A    between atoms: _341  and  _342
REMARK  139  A    between atoms: _345  and  _347
REMARK  140  A    between atoms: _347  and  _348
REMARK  141  A    between atoms: _347  and  _350
REMARK  142  A    between atoms: _350  and  _351
REMARK  143  A    between atoms: _354  and  _356
REMARK  144  A    between atoms: _356  and  _357
REMARK  145  A    between atoms: _356  and  _359
REMARK  146  A    between atoms: _359  and  _360
REMARK  147  A    between atoms: _363  and  _365
REMARK  148  A    between atoms: _365  and  _366
REMARK  149  A    between atoms: _365  and  _368
REMARK  150  A    between atoms: _368  and  _369
REMARK  151  A    between atoms: _372  and  _374
REMARK  152  A    between atoms: _374  and  _375
REMARK  153  A    between atoms: _374  and  _377
REMARK  154  A    between atoms: _377  and  _378
REMARK  155  A    between atoms: _378  and  _379
REMARK  156  A    between atoms: _382  and  _384
REMARK  157  A    between atoms: _384  and  _385
REMARK  158  A    between atoms: _384  and  _387
REMARK  159  A    between atoms: _387  and  _388
REMARK  160  A    between atoms: _388  and  _389
REMARK  161  A    between atoms: _389  and  _390
REMARK  162  A    between atoms: _390  and  _391
REMARK  163  A    between atoms: _395  and  _397
REMARK  164  A    between atoms: _397  and  _398
REMARK  165  A    between atoms: _397  and  _400
REMARK  166  A    between atoms: _403  and  _405
REMARK  167  A    between atoms: _405  and  _406
REMARK  168  A    between atoms: _405  and  _408
REMARK  169  A    between atoms: _411  and  _413
REMARK  170  A    between atoms: _413  and  _414
REMARK  171  A    between atoms: _416  and  _418
REMARK  172  A    between atoms: _418  and  _419
REMARK  173  A    between atoms: _421  and  _423
REMARK  174  A    between atoms: _423  and  _424
REMARK  175  A    between atoms: _423  and  _426
REMARK  176  A    between atoms: _426  and  _427
REMARK  177  A    between atoms: _430  and  _432
REMARK  178  A    between atoms: _432  and  _433
REMARK  179  A    between atoms: _435  and  _437
REMARK  180  A    between atoms: _437  and  _438
REMARK  181  A    between atoms: _440  and  _442
REMARK  182  A    between atoms: _442  and  _443
REMARK  183  A    between atoms: _442  and  _445
REMARK  184  A    between atoms: _445  and  _446
REMARK  185  A    between atoms: _446  and  _447
REMARK  186  A    between atoms: _449  and  _451
REMARK  187  A    between atoms: _451  and  _452
REMARK  188  A    between atoms: _451  and  _454
REMARK  189  A    between atoms: _454  and  _455
REMARK  190  A    between atoms: _459  and  _460
REMARK  191  A    between atoms: _465  and  _467
REMARK  192  A    between atoms: _467  and  _468
REMARK  193  A    between atoms: _467  and  _470
REMARK  194  A    between atoms: _470  and  _471
REMARK  195  A    between atoms: _475  and  _476
REMARK  196  A    between atoms: _481  and  _483
REMARK  197  A    between atoms: _483  and  _484
REMARK  198  A    between atoms: _487  and  _489
REMARK  199  A    between atoms: _489  and  _490
REMARK  200  A    between atoms: _489  and  _492
REMARK  201  A    between atoms: _492  and  _493
REMARK  202  A    between atoms: _498  and  _500
REMARK  203  A    between atoms: _500  and  _501
REMARK  204  A    between atoms: _500  and  _503
REMARK  205  A    between atoms: _503  and  _504
REMARK  206  A    between atoms: _507  and  _509
REMARK  207  A    between atoms: _509  and  _510
REMARK  208  A    between atoms: _509  and  _512
REMARK  209  A    between atoms: _512  and  _513
REMARK  210  A    between atoms: _516  and  _518
REMARK  211  A    between atoms: _518  and  _519
REMARK  212  A    between atoms: _521  and  _523
REMARK  213  A    between atoms: _523  and  _524
REMARK  214  A    between atoms: _523  and  _526
REMARK  215  A    between atoms: _526  and  _527
REMARK  216  A    between atoms: _527  and  _528
REMARK  217  A    between atoms: _528  and  _529
REMARK  218  A    between atoms: _538  and  _540
REMARK  219  A    between atoms: _540  and  _541
REMARK  220  A    between atoms: _540  and  _543
REMARK  221  A    between atoms: _543  and  _544
REMARK                            x       y       z     vdW  Elec       q    Type
REMARK                         _______ _______ _______ _____ _____    ______ ____
ROOT
ATOM      1  CA  GLU A   1     -15.653  41.742  11.563  0.00  0.00    +0.134 C 
ENDROOT
BRANCH   1   2
ATOM      2  N   GLU A   1     -14.396  42.407  11.880  0.00  0.00    -0.239 NA
ATOM      3  H   GLU A   1     -13.528  42.079  11.411  0.00  0.00    +0.142 HD
ENDBRANCH   1   2
BRANCH   1   4
ATOM      4  C   GLU A   1     -16.219  41.084  12.815  0.00  0.00    +0.224 C 
ATOM      5  O   GLU A   1     -15.551  41.049  13.893  0.00  0.00    -0.287 OA
ENDBRANCH   1   4
BRANCH   1   6
ATOM      6  CB  GLU A   1     -15.461  40.712  10.439  0.00  0.00    +0.037 C 
BRANCH   6   7
ATOM      7  CG  GLU A   1     -15.438  41.320   9.020  0.00  0.00    +0.116 C 
BRANCH   7   8
ATOM      8  CD  GLU A   1     -15.059  40.308   7.927  0.00  0.00    +0.365 C 
ATOM      9  OE2 GLU A   1     -14.967  39.076   8.203  0.00  0.00    -0.246 OA
ATOM     10  OE1 GLU A   1     -14.850  40.757   6.778  0.00  0.00    -0.246 OA
ENDBRANCH   7   8
ENDBRANCH   6   7
ENDBRANCH   1   6
TORSDOF 5
REMARK  Name = ../refined-set-2016/4m8x/4m8x_pocket.pdb
REMARK  221 active torsions:
REMARK  status: ('A' for Active; 'I' for Inactive)
REMARK    1  A    between atoms: _1  and  _3
REMARK    2  A    between atoms: _3  and  _4
REMARK    3  A    between atoms: _3  and  _6
REMARK    4  A    between atoms: _6  and  _7
REMARK    5  A    between atoms: _7  and  _8
REMARK    6  A    between atoms: _8  and  _9
REMARK    7  A    between atoms: _18  and  _20
REMARK    8  A    between atoms: _20  and  _21
REMARK    9  A    between atoms: _20  and  _23
REMARK   10  A    between atoms: _23  and  _24
REMARK   11  A    between atoms: _27  and  _29
REMARK   12  A    between atoms: _29  and  _30
REMARK   13  A    between atoms: _29  and  _32
REMARK   14  A    between atoms: _32  and  _33
REMARK   15  A    between atoms: _36  and  _38
REMARK   16  A    between atoms: _38  and  _39
REMARK   17  A    between atoms: _38  and  _41
REMARK   18  A    between atoms: _41  and  _42
REMARK   19  A    between atoms: _45  and  _47
REMARK   20  A    between atoms: _47  and  _48
REMARK   21  A    between atoms: _47  and  _50
REMARK   22  A    between atoms: _50  and  _51
REMARK   23  A    between atoms: _54  and  _56
REMARK   24  A    between atoms: _56  and  _57
REMARK   25  A    between atoms: _59  and  _61
REMARK   26  A    between atoms: _61  and  _62
REMARK   27  A    between atoms: _65  and  _67
REMARK   28  A    between atoms: _67  and  _68
REMARK   29  A    between atoms: _67  and  _70
REMARK   30  A    between atoms: _70  and  _71
REMARK   31  A    between atoms: _74  and  _76
REMARK   32  A    between atoms: _76  and  _77
REMARK   33  A    between atoms: _76  and  _79
REMARK   34  A    between atoms: _79  and  _80
REMARK   35  A    between atoms: _83  and  _85
REMARK   36  A    between atoms: _85  and  _86
REMARK   37  A    between atoms: _85  and  _88
REMARK   38  A    between atoms: _88  and  _89
REMARK   39  A    between atoms: _92  and  _94
REMARK   40  A    between atoms: _94  and  _95
REMARK   41  A    between atoms: _94  and  _97
REMARK   42  A    between atoms: _97  and  _98
REMARK   43  A    between atoms: _101  and  _103
REMARK   44  A    between atoms: _103  and  _104
REMARK   45  A    between atoms: _103  and  _106
REMARK   46  A    between atoms: _109  and  _111
REMARK   47  A    between atoms: _111  and  _112
REMARK   48  A    between atoms: _111  and  _114
REMARK   49  A    between atoms: _117  and  _119
REMARK   50  A    between atoms: _119  and  _120
REMARK   51  A    between atoms: _122  and  _124
REMARK   52  A    between atoms: _124  and  _125
REMARK   53  A    between atoms: _127  and  _129
REMARK   54  A    between atoms: _129  and  _130
REMARK   55  A    between atoms: _129  and  _132
REMARK   56  A    between atoms: _132  and  _133
REMARK   57  A    between atoms: _136  and  _138
REMARK   58  A    between atoms: _138  and  _139
REMARK   59  A    between atoms: _141  and  _143
REMARK   60  A    between atoms: _143  and  _144
REMARK   61  A    between atoms: _146  and  _148
REMARK   62  A    between atoms: _148  and  _149
REMARK   63  A    between atoms: _148  and  _151
REMARK   64  A    between atoms: _151  and  _152
REMARK   65  A    between atoms: _158  and  _160
REMARK   66  A    between atoms: _160  and  _161
REMARK   67  A    between atoms: _160  and  _163
REMARK   68  A    between atoms: _163  and  _164
REMARK   69  A    between atoms: _164  and  _165
REMARK   70  A    between atoms: _167  and  _169
REMARK   71  A    between atoms: _169  and  _170
REMARK   72  A    between atoms: _169  and  _172
REMARK   73  A    between atoms: _172  and  _173
REMARK   74  A    between atoms: _176  and  _178
REMARK   75  A    between atoms: _178  and  _179
REMARK   76  A    between atoms: _178  and  _181
REMARK   77  A    between atoms: _181  and  _182
REMARK   78  A    between atoms: _186  and  _187
REMARK   79  A    between atoms: _192  and  _194
REMARK   80  A    between atoms: _194  and  _195
REMARK   81  A    between atoms: _198  and  _200
REMARK   82  A    between atoms: _200  and  _201
REMARK   83  A    between atoms: _200  and  _203
REMARK   84  A    between atoms: _203  and  _204
REMARK   85  A    between atoms: _209  and  _211
REMARK   86  A    between atoms: _211  and  _212
REMARK   87  A    between atoms: _211  and  _214
REMARK   88  A    between atoms: _214  and  _215
REMARK   89  A    between atoms: _218  and  _220
REMARK   90  A    between atoms: _220  and  _221
REMARK   91  A    between atoms: _220  and  _223
REMARK   92  A    between atoms: _223  and  _224
REMARK   93  A    between atoms: _227  and  _229
REMARK   94  A    between atoms: _229  and  _230
REMARK   95  A    between atoms: _232  and  _234
REMARK   96  A    between atoms: _234  and  _235
REMARK   97  A    between atoms: _234  and  _237
REMARK   98  A    between atoms: _237  and  _238
REMARK   99  A    between atoms: _238  and  _239
REMARK  100  A    between atoms: _239  and  _240
REMARK  101  A    between atoms: _249  and  _251
REMARK  102  A    between atoms: _251  and  _252
REMARK  103  A    between atoms: _251  and  _254
REMARK  104  A    between atoms: _254  and  _255
REMARK  105  A    between atoms: _260  and  _262
REMARK  106  A    between atoms: _262  and  _263
REMARK  107  A    between atoms: _262  and  _265
REMARK  108  A    between atoms: _265  and  _266
REMARK  109  A    between atoms: _266  and  _267
REMARK  110  A    between atoms: _267  and  _268
REMARK  111  A    between atoms: _277  and  _279
REMARK  112  A    between atoms: _279  and  _280
REMARK  113  A    between atoms: _279  and  _282
REMARK  114  A    between atoms: _282  and  _283
REMARK  115  A    between atoms: _289  and  _291
REMARK  116  A    between atoms: _291  and  _292
REMARK  117  A    between atoms: _291  and  _294
REMARK  118  A    between atoms: _294  and  _295
REMARK  119  A    between atoms: _298  and  _300
REMARK  120  A    between atoms: _300  and  _301
REMARK  121  A    between atoms: _300  and  _303
REMARK  122  A    between atoms: _303  and  _304
REMARK  123  A    between atoms: _307  and  _309
REMARK  124  A    between atoms: _309  and  _310
REMARK  125  A    between atoms: _309  and  _312
REMARK  126  A    between atoms: _312  and  _313
REMARK  127  A    between atoms: _316  and  _318
REMARK  128  A    between atoms: _318  and  _319
REMARK  129  A    between atoms: _318  and  _321
REMARK  130  A    between atoms: _321  and  _322
REMARK  131  A    between atoms: _325  and  _327
REMARK  132  A    between atoms: _327  and  _328
REMARK  133  A    between atoms: _330  and  _332
REMARK  134  A    between atoms: _332  and  _333
REMARK  135  A    between atoms: _336  and  _338
REMARK  136  A    between atoms: _338  and  _339
REMARK  137  A    between atoms: _338  and  _341
REMARK  138  A    between atoms: _341  and  _342
REMARK  139  A    between atoms: _345  and  _347
REMARK  140  A    between atoms: _347  and  _348
REMARK  141  A    between atoms: _347  and  _350
REMARK  142  A    between atoms: _350  and  _351
REMARK  143  A    between atoms: _354  and  _356
REMARK  144  A    between atoms: _356  and  _357
REMARK  145  A    between atoms: _356  and  _359
REMARK  146  A    between atoms: _359  and  _360
REMARK  147  A    between atoms: _363  and  _365
REMARK  148  A    between atoms: _365  and  _366
REMARK  149  A    between atoms: _365  and  _368
REMARK  150  A    between atoms: _368  and  _369
REMARK  151  A    between atoms: _372  and  _374
REMARK  152  A    between atoms: _374  and  _375
REMARK  153  A    between atoms: _374  and  _377
REMARK  154  A    between atoms: _377  and  _378
REMARK  155  A    between atoms: _378  and  _379
REMARK  156  A    between atoms: _382  and  _384
REMARK  157  A    between atoms: _384  and  _385
REMARK  158  A    between atoms: _384  and  _387
REMARK  159  A    between atoms: _387  and  _388
REMARK  160  A    between atoms: _388  and  _389
REMARK  161  A    between atoms: _389  and  _390
REMARK  162  A    between atoms: _390  and  _391
REMARK  163  A    between atoms: _395  and  _397
REMARK  164  A    between atoms: _397  and  _398
REMARK  165  A    between atoms: _397  and  _400
REMARK  166  A    between atoms: _403  and  _405
REMARK  167  A    between atoms: _405  and  _406
REMARK  168  A    between atoms: _405  and  _408
REMARK  169  A    between atoms: _411  and  _413
REMARK  170  A    between atoms: _413  and  _414
REMARK  171  A    between atoms: _416  and  _418
REMARK  172  A    between atoms: _418  and  _419
REMARK  173  A    between atoms: _421  and  _423
REMARK  174  A    between atoms: _423  and  _424
REMARK  175  A    between atoms: _423  and  _426
REMARK  176  A    between atoms: _426  and  _427
REMARK  177  A    between atoms: _430  and  _432
REMARK  178  A    between atoms: _432  and  _433
REMARK  179  A    between atoms: _435  and  _437
REMARK  180  A    between atoms: _437  and  _438
REMARK  181  A    between atoms: _440  and  _442
REMARK  182  A    between atoms: _442  and  _443
REMARK  183  A    between atoms: _442  and  _445
REMARK  184  A    between atoms: _445  and  _446
REMARK  185  A    between atoms: _446  and  _447
REMARK  186  A    between atoms: _449  and  _451
REMARK  187  A    between atoms: _451  and  _452
REMARK  188  A    between atoms: _451  and  _454
REMARK  189  A    between atoms: _454  and  _455
REMARK  190  A    between atoms: _459  and  _460
REMARK  191  A    between atoms: _465  and  _467
REMARK  192  A    between atoms: _467  and  _468
REMARK  193  A    between atoms: _467  and  _470
REMARK  194  A    between atoms: _470  and  _471
REMARK  195  A    between atoms: _475  and  _476
REMARK  196  A    between atoms: _481  and  _483
REMARK  197  A    between atoms: _483  and  _484
REMARK  198  A    between atoms: _487  and  _489
REMARK  199  A    between atoms: _489  and  _490
REMARK  200  A    between atoms: _489  and  _492
REMARK  201  A    between atoms: _492  and  _493
REMARK  202  A    between atoms: _498  and  _500
REMARK  203  A    between atoms: _500  and  _501
REMARK  204  A    between atoms: _500  and  _503
REMARK  205  A    between atoms: _503  and  _504
REMARK  206  A    between atoms: _507  and  _509
REMARK  207  A    between atoms: _509  and  _510
REMARK  208  A    between atoms: _509  and  _512
REMARK  209  A    between atoms: _512  and  _513
REMARK  210  A    between atoms: _516  and  _518
REMARK  211  A    between atoms: _518  and  _519
REMARK  212  A    between atoms: _521  and  _523
REMARK  213  A    between atoms: _523  and  _524
REMARK  214  A    between atoms: _523  and  _526
REMARK  215  A    between atoms: _526  and  _527
REMARK  216  A    between atoms: _527  and  _528
REMARK  217  A    between atoms: _528  and  _529
REMARK  218  A    between atoms: _538  and  _540
REMARK  219  A    between atoms: _540  and  _541
REMARK  220  A    between atoms: _540  and  _543
REMARK  221  A    between atoms: _543  and  _544
REMARK                            x       y       z     vdW  Elec       q    Type
REMARK                         _______ _______ _______ _____ _____    ______ ____
ROOT
ATOM      1  C   VAL A   3     -18.944  55.225  11.395  0.00  0.00    +0.241 C 
ATOM      2  O   VAL A   3     -19.836  54.533  10.881  0.00  0.00    -0.273 OA
ATOM      3  N   GLY A   4     -18.347  56.238  10.767  0.00  0.00    -0.295 N 
ATOM      4  H   GLY A   4     -17.507  56.671  11.201  0.00  0.00    +0.150 HD
ENDROOT
BRANCH   3   5
ATOM      5  CA  GLY A   4     -18.825  56.757   9.504  0.00  0.00    +0.176 C 
BRANCH   5   6
ATOM      6  C   GLY A   4     -17.818  56.538   8.374  0.00  0.00    +0.243 C 
ATOM      7  O   GLY A   4     -16.590  56.606   8.578  0.00  0.00    -0.273 OA
ATOM      8  N   GLY A   5     -18.326  56.296   7.184  0.00  0.00    -0.295 N 
ATOM      9  H   GLY A   5     -19.358  56.287   7.055  0.00  0.00    +0.150 HD
BRANCH   8  10
ATOM     10  CA  GLY A   5     -17.463  56.044   6.061  0.00  0.00    +0.176 C 
BRANCH  10  11
ATOM     11  C   GLY A   5     -18.167  56.418   4.796  0.00  0.00    +0.243 C 
ATOM     12  O   GLY A   5     -19.162  57.147   4.841  0.00  0.00    -0.273 OA
ATOM     13  N   ILE A   6     -17.628  55.909   3.675  0.00  0.00    -0.297 N 
ATOM     14  H   ILE A   6     -16.698  55.450   3.749  0.00  0.00    +0.150 HD
BRANCH  13  15
ATOM     15  CA  ILE A   6     -18.268  55.958   2.347  0.00  0.00    +0.149 C 
BRANCH  15  16
ATOM     16  C   ILE A   6     -19.549  55.133   2.411  0.00  0.00    +0.241 C 
ATOM     17  O   ILE A   6     -19.522  53.976   2.812  0.00  0.00    -0.273 OA
ATOM     18  N   GLY A   7     -20.682  55.710   2.043  0.00  0.00    -0.295 N 
ATOM     19  H   GLY A   7     -20.678  56.673   1.650  0.00  0.00    +0.150 HD
BRANCH  18  20
ATOM     20  CA  GLY A   7     -21.944  54.976   2.196  0.00  0.00    +0.176 C 
BRANCH  20  21
ATOM     21  C   GLY A   7     -22.722  55.197   3.494  0.00  0.00    +0.243 C 
ATOM     22  N   GLY A   8     -22.134  55.840   4.505  0.00  0.00    -0.296 N 
ATOM     23  H   GLY A   8     -21.113  56.032   4.465  0.00  0.00    +0.150 HD
ATOM     24  O   GLY A   7     -23.863  54.777   3.582  0.00  0.00    -0.273 OA
BRANCH  22  25
ATOM     25  CA  GLY A   8     -22.902  56.276   5.663  0.00  0.00    +0.163 C 
BRANCH  25  26
ATOM     26  C   GLY A   8     -22.322  55.729   6.938  0.00  0.00    +0.229 C 
ATOM     27  O   GLY A   8     -21.105  55.758   7.139  0.00  0.00    -0.286 OA
ENDBRANCH  25  26
ENDBRANCH  22  25
ENDBRANCH  20  21
ENDBRANCH  18  20
ENDBRANCH  15  16
BRANCH  15  28
ATOM     28  CB  ILE A   6     -17.321  55.405   1.234  0.00  0.00    +0.027 C 
ATOM     29  CG2 ILE A   6     -18.115  54.854   0.036  0.00  0.00    +0.002 C 
BRANCH  28  30
ATOM     30  CG1 ILE A   6     -16.383  56.528   0.772  0.00  0.00    +0.002 C 
ATOM     31  CD1 ILE A   6     -15.358  56.115  -0.246  0.00  0.00    +0.000 C 
ENDBRANCH  28  30
ENDBRANCH  15  28
ENDBRANCH  13  15
ENDBRANCH  10  11
ENDBRANCH   8  10
ENDBRANCH   5   6
ENDBRANCH   3   5
BRANCH   1  32
ATOM     32  CA  VAL A   3     -18.435  54.935  12.804  0.00  0.00    +0.149 C 
BRANCH  32  35
ATOM     33  C   VAL A   2     -19.967  55.039  14.757  0.00  0.00    +0.241 C 
ATOM     34  O   VAL A   2     -19.469  56.079  15.218  0.00  0.00    -0.273 OA
ATOM     35  N   VAL A   3     -19.511  54.412  13.665  0.00  0.00    -0.297 N 
ATOM     36  H   VAL A   3     -19.942  53.501  13.409  0.00  0.00    +0.150 HD
BRANCH  33  37
ATOM     37  CA  VAL A   2     -21.154  54.381  15.462  0.00  0.00    +0.148 C 
BRANCH  37  40
ATOM     38  C   LYS A   1     -20.952  53.495  17.748  0.00  0.00    +0.238 C 
ATOM     39  O   LYS A   1     -21.455  52.427  17.413  0.00  0.00    -0.274 OA
ATOM     40  N   VAL A   2     -20.917  54.534  16.920  0.00  0.00    -0.297 N 
ATOM     41  H   VAL A   2     -20.718  55.480  17.304  0.00  0.00    +0.150 HD
BRANCH  38  42
ATOM     42  CA  LYS A   1     -20.382  53.699  19.182  0.00  0.00    +0.145 C 
BRANCH  42  43
ATOM     43  N   LYS A   1     -20.896  52.616  20.005  0.00  0.00    -0.238 NA
ATOM     44  H   LYS A   1     -20.999  51.675  19.575  0.00  0.00    +0.142 HD
ENDBRANCH  42  43
BRANCH  42  45
ATOM     45  CB  LYS A   1     -18.826  53.678  19.199  0.00  0.00    +0.026 C 
BRANCH  45  46
ATOM     46  CG  LYS A   1     -18.121  55.064  19.159  0.00  0.00    -0.000 C 
BRANCH  46  47
ATOM     47  CD  LYS A   1     -16.652  54.995  18.649  0.00  0.00    -0.024 C 
BRANCH  47  48
ATOM     48  CE  LYS A   1     -15.986  56.391  18.516  0.00  0.00    -0.086 C 
BRANCH  48  49
ATOM     49  NZ  LYS A   1     -16.336  57.132  17.255  0.00  0.00    +0.380 N 
ATOM     50  HZ1 LYS A   1     -15.850  58.051  17.248  0.00  0.00    -0.089 HD
ATOM     51  HZ2 LYS A   1     -17.364  57.282  17.217  0.00  0.00    -0.089 HD
ATOM     52  HZ3 LYS A   1     -16.035  56.573  16.431  0.00  0.00    -0.089 HD
ENDBRANCH  48  49
ENDBRANCH  47  48
ENDBRANCH  46  47
ENDBRANCH  45  46
ENDBRANCH  42  45
ENDBRANCH  38  42
ENDBRANCH  37  40
BRANCH  37  53
ATOM     53  CB  VAL A   2     -22.518  54.992  14.987  0.00  0.00    +0.027 C 
ATOM     54  CG2 VAL A   2     -23.681  54.526  15.873  0.00  0.00    +0.002 C 
ATOM     55  CG1 VAL A   2     -22.456  56.489  14.998  0.00  0.00    +0.002 C 
ENDBRANCH  37  53
ENDBRANCH  33  37
ENDBRANCH  32  35
BRANCH  32  56
ATOM     56  CB  VAL A   3     -17.247  53.933  12.671  0.00  0.00    +0.027 C 
ATOM     57  CG2 VAL A   3     -16.502  53.808  13.981  0.00  0.00    +0.002 C 
ATOM     58  CG1 VAL A   3     -17.758  52.559  12.227  0.00  0.00    +0.002 C 
ENDBRANCH  32  56
ENDBRANCH   1  32
TORSDOF 25
REMARK  Name = ../refined-set-2016/4m8x/4m8x_pocket.pdb
REMARK  221 active torsions:
REMARK  status: ('A' for Active; 'I' for Inactive)
REMARK    1  A    between atoms: _1  and  _3
REMARK    2  A    between atoms: _3  and  _4
REMARK    3  A    between atoms: _3  and  _6
REMARK    4  A    between atoms: _6  and  _7
REMARK    5  A    between atoms: _7  and  _8
REMARK    6  A    between atoms: _8  and  _9
REMARK    7  A    between atoms: _18  and  _20
REMARK    8  A    between atoms: _20  and  _21
REMARK    9  A    between atoms: _20  and  _23
REMARK   10  A    between atoms: _23  and  _24
REMARK   11  A    between atoms: _27  and  _29
REMARK   12  A    between atoms: _29  and  _30
REMARK   13  A    between atoms: _29  and  _32
REMARK   14  A    between atoms: _32  and  _33
REMARK   15  A    between atoms: _36  and  _38
REMARK   16  A    between atoms: _38  and  _39
REMARK   17  A    between atoms: _38  and  _41
REMARK   18  A    between atoms: _41  and  _42
REMARK   19  A    between atoms: _45  and  _47
REMARK   20  A    between atoms: _47  and  _48
REMARK   21  A    between atoms: _47  and  _50
REMARK   22  A    between atoms: _50  and  _51
REMARK   23  A    between atoms: _54  and  _56
REMARK   24  A    between atoms: _56  and  _57
REMARK   25  A    between atoms: _59  and  _61
REMARK   26  A    between atoms: _61  and  _62
REMARK   27  A    between atoms: _65  and  _67
REMARK   28  A    between atoms: _67  and  _68
REMARK   29  A    between atoms: _67  and  _70
REMARK   30  A    between atoms: _70  and  _71
REMARK   31  A    between atoms: _74  and  _76
REMARK   32  A    between atoms: _76  and  _77
REMARK   33  A    between atoms: _76  and  _79
REMARK   34  A    between atoms: _79  and  _80
REMARK   35  A    between atoms: _83  and  _85
REMARK   36  A    between atoms: _85  and  _86
REMARK   37  A    between atoms: _85  and  _88
REMARK   38  A    between atoms: _88  and  _89
REMARK   39  A    between atoms: _92  and  _94
REMARK   40  A    between atoms: _94  and  _95
REMARK   41  A    between atoms: _94  and  _97
REMARK   42  A    between atoms: _97  and  _98
REMARK   43  A    between atoms: _101  and  _103
REMARK   44  A    between atoms: _103  and  _104
REMARK   45  A    between atoms: _103  and  _106
REMARK   46  A    between atoms: _109  and  _111
REMARK   47  A    between atoms: _111  and  _112
REMARK   48  A    between atoms: _111  and  _114
REMARK   49  A    between atoms: _117  and  _119
REMARK   50  A    between atoms: _119  and  _120
REMARK   51  A    between atoms: _122  and  _124
REMARK   52  A    between atoms: _124  and  _125
REMARK   53  A    between atoms: _127  and  _129
REMARK   54  A    between atoms: _129  and  _130
REMARK   55  A    between atoms: _129  and  _132
REMARK   56  A    between atoms: _132  and  _133
REMARK   57  A    between atoms: _136  and  _138
REMARK   58  A    between atoms: _138  and  _139
REMARK   59  A    between atoms: _141  and  _143
REMARK   60  A    between atoms: _143  and  _144
REMARK   61  A    between atoms: _146  and  _148
REMARK   62  A    between atoms: _148  and  _149
REMARK   63  A    between atoms: _148  and  _151
REMARK   64  A    between atoms: _151  and  _152
REMARK   65  A    between atoms: _158  and  _160
REMARK   66  A    between atoms: _160  and  _161
REMARK   67  A    between atoms: _160  and  _163
REMARK   68  A    between atoms: _163  and  _164
REMARK   69  A    between atoms: _164  and  _165
REMARK   70  A    between atoms: _167  and  _169
REMARK   71  A    between atoms: _169  and  _170
REMARK   72  A    between atoms: _169  and  _172
REMARK   73  A    between atoms: _172  and  _173
REMARK   74  A    between atoms: _176  and  _178
REMARK   75  A    between atoms: _178  and  _179
REMARK   76  A    between atoms: _178  and  _181
REMARK   77  A    between atoms: _181  and  _182
REMARK   78  A    between atoms: _186  and  _187
REMARK   79  A    between atoms: _192  and  _194
REMARK   80  A    between atoms: _194  and  _195
REMARK   81  A    between atoms: _198  and  _200
REMARK   82  A    between atoms: _200  and  _201
REMARK   83  A    between atoms: _200  and  _203
REMARK   84  A    between atoms: _203  and  _204
REMARK   85  A    between atoms: _209  and  _211
REMARK   86  A    between atoms: _211  and  _212
REMARK   87  A    between atoms: _211  and  _214
REMARK   88  A    between atoms: _214  and  _215
REMARK   89  A    between atoms: _218  and  _220
REMARK   90  A    between atoms: _220  and  _221
REMARK   91  A    between atoms: _220  and  _223
REMARK   92  A    between atoms: _223  and  _224
REMARK   93  A    between atoms: _227  and  _229
REMARK   94  A    between atoms: _229  and  _230
REMARK   95  A    between atoms: _232  and  _234
REMARK   96  A    between atoms: _234  and  _235
REMARK   97  A    between atoms: _234  and  _237
REMARK   98  A    between atoms: _237  and  _238
REMARK   99  A    between atoms: _238  and  _239
REMARK  100  A    between atoms: _239  and  _240
REMARK  101  A    between atoms: _249  and  _251
REMARK  102  A    between atoms: _251  and  _252
REMARK  103  A    between atoms: _251  and  _254
REMARK  104  A    between atoms: _254  and  _255
REMARK  105  A    between atoms: _260  and  _262
REMARK  106  A    between atoms: _262  and  _263
REMARK  107  A    between atoms: _262  and  _265
REMARK  108  A    between atoms: _265  and  _266
REMARK  109  A    between atoms: _266  and  _267
REMARK  110  A    between atoms: _267  and  _268
REMARK  111  A    between atoms: _277  and  _279
REMARK  112  A    between atoms: _279  and  _280
REMARK  113  A    between atoms: _279  and  _282
REMARK  114  A    between atoms: _282  and  _283
REMARK  115  A    between atoms: _289  and  _291
REMARK  116  A    between atoms: _291  and  _292
REMARK  117  A    between atoms: _291  and  _294
REMARK  118  A    between atoms: _294  and  _295
REMARK  119  A    between atoms: _298  and  _300
REMARK  120  A    between atoms: _300  and  _301
REMARK  121  A    between atoms: _300  and  _303
REMARK  122  A    between atoms: _303  and  _304
REMARK  123  A    between atoms: _307  and  _309
REMARK  124  A    between atoms: _309  and  _310
REMARK  125  A    between atoms: _309  and  _312
REMARK  126  A    between atoms: _312  and  _313
REMARK  127  A    between atoms: _316  and  _318
REMARK  128  A    between atoms: _318  and  _319
REMARK  129  A    between atoms: _318  and  _321
REMARK  130  A    between atoms: _321  and  _322
REMARK  131  A    between atoms: _325  and  _327
REMARK  132  A    between atoms: _327  and  _328
REMARK  133  A    between atoms: _330  and  _332
REMARK  134  A    between atoms: _332  and  _333
REMARK  135  A    between atoms: _336  and  _338
REMARK  136  A    between atoms: _338  and  _339
REMARK  137  A    between atoms: _338  and  _341
REMARK  138  A    between atoms: _341  and  _342
REMARK  139  A    between atoms: _345  and  _347
REMARK  140  A    between atoms: _347  and  _348
REMARK  141  A    between atoms: _347  and  _350
REMARK  142  A    between atoms: _350  and  _351
REMARK  143  A    between atoms: _354  and  _356
REMARK  144  A    between atoms: _356  and  _357
REMARK  145  A    between atoms: _356  and  _359
REMARK  146  A    between atoms: _359  and  _360
REMARK  147  A    between atoms: _363  and  _365
REMARK  148  A    between atoms: _365  and  _366
REMARK  149  A    between atoms: _365  and  _368
REMARK  150  A    between atoms: _368  and  _369
REMARK  151  A    between atoms: _372  and  _374
REMARK  152  A    between atoms: _374  and  _375
REMARK  153  A    between atoms: _374  and  _377
REMARK  154  A    between atoms: _377  and  _378
REMARK  155  A    between atoms: _378  and  _379
REMARK  156  A    between atoms: _382  and  _384
REMARK  157  A    between atoms: _384  and  _385
REMARK  158  A    between atoms: _384  and  _387
REMARK  159  A    between atoms: _387  and  _388
REMARK  160  A    between atoms: _388  and  _389
REMARK  161  A    between atoms: _389  and  _390
REMARK  162  A    between atoms: _390  and  _391
REMARK  163  A    between atoms: _395  and  _397
REMARK  164  A    between atoms: _397  and  _398
REMARK  165  A    between atoms: _397  and  _400
REMARK  166  A    between atoms: _403  and  _405
REMARK  167  A    between atoms: _405  and  _406
REMARK  168  A    between atoms: _405  and  _408
REMARK  169  A    between atoms: _411  and  _413
REMARK  170  A    between atoms: _413  and  _414
REMARK  171  A    between atoms: _416  and  _418
REMARK  172  A    between atoms: _418  and  _419
REMARK  173  A    between atoms: _421  and  _423
REMARK  174  A    between atoms: _423  and  _424
REMARK  175  A    between atoms: _423  and  _426
REMARK  176  A    between atoms: _426  and  _427
REMARK  177  A    between atoms: _430  and  _432
REMARK  178  A    between atoms: _432  and  _433
REMARK  179  A    between atoms: _435  and  _437
REMARK  180  A    between atoms: _437  and  _438
REMARK  181  A    between atoms: _440  and  _442
REMARK  182  A    between atoms: _442  and  _443
REMARK  183  A    between atoms: _442  and  _445
REMARK  184  A    between atoms: _445  and  _446
REMARK  185  A    between atoms: _446  and  _447
REMARK  186  A    between atoms: _449  and  _451
REMARK  187  A    between atoms: _451  and  _452
REMARK  188  A    between atoms: _451  and  _454
REMARK  189  A    between atoms: _454  and  _455
REMARK  190  A    between atoms: _459  and  _460
REMARK  191  A    between atoms: _465  and  _467
REMARK  192  A    between atoms: _467  and  _468
REMARK  193  A    between atoms: _467  and  _470
REMARK  194  A    between atoms: _470  and  _471
REMARK  195  A    between atoms: _475  and  _476
REMARK  196  A    between atoms: _481  and  _483
REMARK  197  A    between atoms: _483  and  _484
REMARK  198  A    between atoms: _487  and  _489
REMARK  199  A    between atoms: _489  and  _490
REMARK  200  A    between atoms: _489  and  _492
REMARK  201  A    between atoms: _492  and  _493
REMARK  202  A    between atoms: _498  and  _500
REMARK  203  A    between atoms: _500  and  _501
REMARK  204  A    between atoms: _500  and  _503
REMARK  205  A    between atoms: _503  and  _504
REMARK  206  A    between atoms: _507  and  _509
REMARK  207  A    between atoms: _509  and  _510
REMARK  208  A    between atoms: _509  and  _512
REMARK  209  A    between atoms: _512  and  _513
REMARK  210  A    between atoms: _516  and  _518
REMARK  211  A    between atoms: _518  and  _519
REMARK  212  A    between atoms: _521  and  _523
REMARK  213  A    between atoms: _523  and  _524
REMARK  214  A    between atoms: _523  and  _526
REMARK  215  A    between atoms: _526  and  _527
REMARK  216  A    between atoms: _527  and  _528
REMARK  217  A    between atoms: _528  and  _529
REMARK  218  A    between atoms: _538  and  _540
REMARK  219  A    between atoms: _540  and  _541
REMARK  220  A    between atoms: _540  and  _543
REMARK  221  A    between atoms: _543  and  _544
REMARK                            x       y       z     vdW  Elec       q    Type
REMARK                         _______ _______ _______ _____ _____    ______ ____
ROOT
ATOM      1  CA  MET A   1     -22.356  51.546  10.928  0.00  0.00    +0.134 C 
ENDROOT
BRANCH   1   2
ATOM      2  N   MET A   1     -22.275  52.932  10.488  0.00  0.00    -0.239 NA
ATOM      3  H   MET A   1     -21.613  53.574  10.970  0.00  0.00    +0.142 HD
ENDBRANCH   1   2
BRANCH   1   4
ATOM      4  C   MET A   1     -22.237  51.476  12.451  0.00  0.00    +0.224 C 
ATOM      5  O   MET A   1     -21.317  52.038  13.021  0.00  0.00    -0.287 OA
ENDBRANCH   1   4
BRANCH   1   6
ATOM      6  CB  MET A   1     -21.209  50.768  10.259  0.00  0.00    +0.037 C 
BRANCH   6   7
ATOM      7  CG  MET A   1     -21.100  49.315  10.626  0.00  0.00    +0.059 C 
BRANCH   7   8
ATOM      8  SD  MET A   1     -19.585  48.598   9.960  0.00  0.00    -0.139 S 
ATOM      9  CE  MET A   1     -18.402  49.041  11.256  0.00  0.00    +0.069 C 
ENDBRANCH   7   8
ENDBRANCH   6   7
ENDBRANCH   1   6
TORSDOF 5
REMARK  Name = ../refined-set-2016/4m8x/4m8x_pocket.pdb
REMARK  221 active torsions:
REMARK  status: ('A' for Active; 'I' for Inactive)
REMARK    1  A    between atoms: _1  and  _3
REMARK    2  A    between atoms: _3  and  _4
REMARK    3  A    between atoms: _3  and  _6
REMARK    4  A    between atoms: _6  and  _7
REMARK    5  A    between atoms: _7  and  _8
REMARK    6  A    between atoms: _8  and  _9
REMARK    7  A    between atoms: _18  and  _20
REMARK    8  A    between atoms: _20  and  _21
REMARK    9  A    between atoms: _20  and  _23
REMARK   10  A    between atoms: _23  and  _24
REMARK   11  A    between atoms: _27  and  _29
REMARK   12  A    between atoms: _29  and  _30
REMARK   13  A    between atoms: _29  and  _32
REMARK   14  A    between atoms: _32  and  _33
REMARK   15  A    between atoms: _36  and  _38
REMARK   16  A    between atoms: _38  and  _39
REMARK   17  A    between atoms: _38  and  _41
REMARK   18  A    between atoms: _41  and  _42
REMARK   19  A    between atoms: _45  and  _47
REMARK   20  A    between atoms: _47  and  _48
REMARK   21  A    between atoms: _47  and  _50
REMARK   22  A    between atoms: _50  and  _51
REMARK   23  A    between atoms: _54  and  _56
REMARK   24  A    between atoms: _56  and  _57
REMARK   25  A    between atoms: _59  and  _61
REMARK   26  A    between atoms: _61  and  _62
REMARK   27  A    between atoms: _65  and  _67
REMARK   28  A    between atoms: _67  and  _68
REMARK   29  A    between atoms: _67  and  _70
REMARK   30  A    between atoms: _70  and  _71
REMARK   31  A    between atoms: _74  and  _76
REMARK   32  A    between atoms: _76  and  _77
REMARK   33  A    between atoms: _76  and  _79
REMARK   34  A    between atoms: _79  and  _80
REMARK   35  A    between atoms: _83  and  _85
REMARK   36  A    between atoms: _85  and  _86
REMARK   37  A    between atoms: _85  and  _88
REMARK   38  A    between atoms: _88  and  _89
REMARK   39  A    between atoms: _92  and  _94
REMARK   40  A    between atoms: _94  and  _95
REMARK   41  A    between atoms: _94  and  _97
REMARK   42  A    between atoms: _97  and  _98
REMARK   43  A    between atoms: _101  and  _103
REMARK   44  A    between atoms: _103  and  _104
REMARK   45  A    between atoms: _103  and  _106
REMARK   46  A    between atoms: _109  and  _111
REMARK   47  A    between atoms: _111  and  _112
REMARK   48  A    between atoms: _111  and  _114
REMARK   49  A    between atoms: _117  and  _119
REMARK   50  A    between atoms: _119  and  _120
REMARK   51  A    between atoms: _122  and  _124
REMARK   52  A    between atoms: _124  and  _125
REMARK   53  A    between atoms: _127  and  _129
REMARK   54  A    between atoms: _129  and  _130
REMARK   55  A    between atoms: _129  and  _132
REMARK   56  A    between atoms: _132  and  _133
REMARK   57  A    between atoms: _136  and  _138
REMARK   58  A    between atoms: _138  and  _139
REMARK   59  A    between atoms: _141  and  _143
REMARK   60  A    between atoms: _143  and  _144
REMARK   61  A    between atoms: _146  and  _148
REMARK   62  A    between atoms: _148  and  _149
REMARK   63  A    between atoms: _148  and  _151
REMARK   64  A    between atoms: _151  and  _152
REMARK   65  A    between atoms: _158  and  _160
REMARK   66  A    between atoms: _160  and  _161
REMARK   67  A    between atoms: _160  and  _163
REMARK   68  A    between atoms: _163  and  _164
REMARK   69  A    between atoms: _164  and  _165
REMARK   70  A    between atoms: _167  and  _169
REMARK   71  A    between atoms: _169  and  _170
REMARK   72  A    between atoms: _169  and  _172
REMARK   73  A    between atoms: _172  and  _173
REMARK   74  A    between atoms: _176  and  _178
REMARK   75  A    between atoms: _178  and  _179
REMARK   76  A    between atoms: _178  and  _181
REMARK   77  A    between atoms: _181  and  _182
REMARK   78  A    between atoms: _186  and  _187
REMARK   79  A    between atoms: _192  and  _194
REMARK   80  A    between atoms: _194  and  _195
REMARK   81  A    between atoms: _198  and  _200
REMARK   82  A    between atoms: _200  and  _201
REMARK   83  A    between atoms: _200  and  _203
REMARK   84  A    between atoms: _203  and  _204
REMARK   85  A    between atoms: _209  and  _211
REMARK   86  A    between atoms: _211  and  _212
REMARK   87  A    between atoms: _211  and  _214
REMARK   88  A    between atoms: _214  and  _215
REMARK   89  A    between atoms: _218  and  _220
REMARK   90  A    between atoms: _220  and  _221
REMARK   91  A    between atoms: _220  and  _223
REMARK   92  A    between atoms: _223  and  _224
REMARK   93  A    between atoms: _227  and  _229
REMARK   94  A    between atoms: _229  and  _230
REMARK   95  A    between atoms: _232  and  _234
REMARK   96  A    between atoms: _234  and  _235
REMARK   97  A    between atoms: _234  and  _237
REMARK   98  A    between atoms: _237  and  _238
REMARK   99  A    between atoms: _238  and  _239
REMARK  100  A    between atoms: _239  and  _240
REMARK  101  A    between atoms: _249  and  _251
REMARK  102  A    between atoms: _251  and  _252
REMARK  103  A    between atoms: _251  and  _254
REMARK  104  A    between atoms: _254  and  _255
REMARK  105  A    between atoms: _260  and  _262
REMARK  106  A    between atoms: _262  and  _263
REMARK  107  A    between atoms: _262  and  _265
REMARK  108  A    between atoms: _265  and  _266
REMARK  109  A    between atoms: _266  and  _267
REMARK  110  A    between atoms: _267  and  _268
REMARK  111  A    between atoms: _277  and  _279
REMARK  112  A    between atoms: _279  and  _280
REMARK  113  A    between atoms: _279  and  _282
REMARK  114  A    between atoms: _282  and  _283
REMARK  115  A    between atoms: _289  and  _291
REMARK  116  A    between atoms: _291  and  _292
REMARK  117  A    between atoms: _291  and  _294
REMARK  118  A    between atoms: _294  and  _295
REMARK  119  A    between atoms: _298  and  _300
REMARK  120  A    between atoms: _300  and  _301
REMARK  121  A    between atoms: _300  and  _303
REMARK  122  A    between atoms: _303  and  _304
REMARK  123  A    between atoms: _307  and  _309
REMARK  124  A    between atoms: _309  and  _310
REMARK  125  A    between atoms: _309  and  _312
REMARK  126  A    between atoms: _312  and  _313
REMARK  127  A    between atoms: _316  and  _318
REMARK  128  A    between atoms: _318  and  _319
REMARK  129  A    between atoms: _318  and  _321
REMARK  130  A    between atoms: _321  and  _322
REMARK  131  A    between atoms: _325  and  _327
REMARK  132  A    between atoms: _327  and  _328
REMARK  133  A    between atoms: _330  and  _332
REMARK  134  A    between atoms: _332  and  _333
REMARK  135  A    between atoms: _336  and  _338
REMARK  136  A    between atoms: _338  and  _339
REMARK  137  A    between atoms: _338  and  _341
REMARK  138  A    between atoms: _341  and  _342
REMARK  139  A    between atoms: _345  and  _347
REMARK  140  A    between atoms: _347  and  _348
REMARK  141  A    between atoms: _347  and  _350
REMARK  142  A    between atoms: _350  and  _351
REMARK  143  A    between atoms: _354  and  _356
REMARK  144  A    between atoms: _356  and  _357
REMARK  145  A    between atoms: _356  and  _359
REMARK  146  A    between atoms: _359  and  _360
REMARK  147  A    between atoms: _363  and  _365
REMARK  148  A    between atoms: _365  and  _366
REMARK  149  A    between atoms: _365  and  _368
REMARK  150  A    between atoms: _368  and  _369
REMARK  151  A    between atoms: _372  and  _374
REMARK  152  A    between atoms: _374  and  _375
REMARK  153  A    between atoms: _374  and  _377
REMARK  154  A    between atoms: _377  and  _378
REMARK  155  A    between atoms: _378  and  _379
REMARK  156  A    between atoms: _382  and  _384
REMARK  157  A    between atoms: _384  and  _385
REMARK  158  A    between atoms: _384  and  _387
REMARK  159  A    between atoms: _387  and  _388
REMARK  160  A    between atoms: _388  and  _389
REMARK  161  A    between atoms: _389  and  _390
REMARK  162  A    between atoms: _390  and  _391
REMARK  163  A    between atoms: _395  and  _397
REMARK  164  A    between atoms: _397  and  _398
REMARK  165  A    between atoms: _397  and  _400
REMARK  166  A    between atoms: _403  and  _405
REMARK  167  A    between atoms: _405  and  _406
REMARK  168  A    between atoms: _405  and  _408
REMARK  169  A    between atoms: _411  and  _413
REMARK  170  A    between atoms: _413  and  _414
REMARK  171  A    between atoms: _416  and  _418
REMARK  172  A    between atoms: _418  and  _419
REMARK  173  A    between atoms: _421  and  _423
REMARK  174  A    between atoms: _423  and  _424
REMARK  175  A    between atoms: _423  and  _426
REMARK  176  A    between atoms: _426  and  _427
REMARK  177  A    between atoms: _430  and  _432
REMARK  178  A    between atoms: _432  and  _433
REMARK  179  A    between atoms: _435  and  _437
REMARK  180  A    between atoms: _437  and  _438
REMARK  181  A    between atoms: _440  and  _442
REMARK  182  A    between atoms: _442  and  _443
REMARK  183  A    between atoms: _442  and  _445
REMARK  184  A    between atoms: _445  and  _446
REMARK  185  A    between atoms: _446  and  _447
REMARK  186  A    between atoms: _449  and  _451
REMARK  187  A    between atoms: _451  and  _452
REMARK  188  A    between atoms: _451  and  _454
REMARK  189  A    between atoms: _454  and  _455
REMARK  190  A    between atoms: _459  and  _460
REMARK  191  A    between atoms: _465  and  _467
REMARK  192  A    between atoms: _467  and  _468
REMARK  193  A    between atoms: _467  and  _470
REMARK  194  A    between atoms: _470  and  _471
REMARK  195  A    between atoms: _475  and  _476
REMARK  196  A    between atoms: _481  and  _483
REMARK  197  A    between atoms: _483  and  _484
REMARK  198  A    between atoms: _487  and  _489
REMARK  199  A    between atoms: _489  and  _490
REMARK  200  A    between atoms: _489  and  _492
REMARK  201  A    between atoms: _492  and  _493
REMARK  202  A    between atoms: _498  and  _500
REMARK  203  A    between atoms: _500  and  _501
REMARK  204  A    between atoms: _500  and  _503
REMARK  205  A    between atoms: _503  and  _504
REMARK  206  A    between atoms: _507  and  _509
REMARK  207  A    between atoms: _509  and  _510
REMARK  208  A    between atoms: _509  and  _512
REMARK  209  A    between atoms: _512  and  _513
REMARK  210  A    between atoms: _516  and  _518
REMARK  211  A    between atoms: _518  and  _519
REMARK  212  A    between atoms: _521  and  _523
REMARK  213  A    between atoms: _523  and  _524
REMARK  214  A    between atoms: _523  and  _526
REMARK  215  A    between atoms: _526  and  _527
REMARK  216  A    between atoms: _527  and  _528
REMARK  217  A    between atoms: _528  and  _529
REMARK  218  A    between atoms: _538  and  _540
REMARK  219  A    between atoms: _540  and  _541
REMARK  220  A    between atoms: _540  and  _543
REMARK  221  A    between atoms: _543  and  _544
REMARK                            x       y       z     vdW  Elec       q    Type
REMARK                         _______ _______ _______ _____ _____    ______ ____
ROOT
ATOM      1  CA  LEU A   1     -14.335  48.302  17.194  0.00  0.00    +0.133 C 
ENDROOT
BRANCH   1   2
ATOM      2  N   LEU A   1     -12.877  48.238  17.429  0.00  0.00    -0.239 NA
ATOM      3  H   LEU A   1     -12.232  48.533  16.668  0.00  0.00    +0.142 HD
ENDBRANCH   1   2
BRANCH   1   4
ATOM      4  C   LEU A   1     -14.760  47.064  16.402  0.00  0.00    +0.224 C 
ATOM      5  O   LEU A   1     -14.109  46.696  15.416  0.00  0.00    -0.287 OA
ENDBRANCH   1   4
BRANCH   1   6
ATOM      6  CB  LEU A   1     -14.728  49.596  16.457  0.00  0.00    +0.025 C 
BRANCH   6   7
ATOM      7  CG  LEU A   1     -14.193  50.939  16.999  0.00  0.00    +0.002 C 
ATOM      8  CD2 LEU A   1     -14.804  51.266  18.387  0.00  0.00    +0.000 C 
ATOM      9  CD1 LEU A   1     -14.416  52.110  15.957  0.00  0.00    +0.000 C 
ENDBRANCH   6   7
ENDBRANCH   1   6
TORSDOF 4
REMARK  Name = ../refined-set-2016/4m8x/4m8x_pocket.pdb
REMARK  221 active torsions:
REMARK  status: ('A' for Active; 'I' for Inactive)
REMARK    1  A    between atoms: _1  and  _3
REMARK    2  A    between atoms: _3  and  _4
REMARK    3  A    between atoms: _3  and  _6
REMARK    4  A    between atoms: _6  and  _7
REMARK    5  A    between atoms: _7  and  _8
REMARK    6  A    between atoms: _8  and  _9
REMARK    7  A    between atoms: _18  and  _20
REMARK    8  A    between atoms: _20  and  _21
REMARK    9  A    between atoms: _20  and  _23
REMARK   10  A    between atoms: _23  and  _24
REMARK   11  A    between atoms: _27  and  _29
REMARK   12  A    between atoms: _29  and  _30
REMARK   13  A    between atoms: _29  and  _32
REMARK   14  A    between atoms: _32  and  _33
REMARK   15  A    between atoms: _36  and  _38
REMARK   16  A    between atoms: _38  and  _39
REMARK   17  A    between atoms: _38  and  _41
REMARK   18  A    between atoms: _41  and  _42
REMARK   19  A    between atoms: _45  and  _47
REMARK   20  A    between atoms: _47  and  _48
REMARK   21  A    between atoms: _47  and  _50
REMARK   22  A    between atoms: _50  and  _51
REMARK   23  A    between atoms: _54  and  _56
REMARK   24  A    between atoms: _56  and  _57
REMARK   25  A    between atoms: _59  and  _61
REMARK   26  A    between atoms: _61  and  _62
REMARK   27  A    between atoms: _65  and  _67
REMARK   28  A    between atoms: _67  and  _68
REMARK   29  A    between atoms: _67  and  _70
REMARK   30  A    between atoms: _70  and  _71
REMARK   31  A    between atoms: _74  and  _76
REMARK   32  A    between atoms: _76  and  _77
REMARK   33  A    between atoms: _76  and  _79
REMARK   34  A    between atoms: _79  and  _80
REMARK   35  A    between atoms: _83  and  _85
REMARK   36  A    between atoms: _85  and  _86
REMARK   37  A    between atoms: _85  and  _88
REMARK   38  A    between atoms: _88  and  _89
REMARK   39  A    between atoms: _92  and  _94
REMARK   40  A    between atoms: _94  and  _95
REMARK   41  A    between atoms: _94  and  _97
REMARK   42  A    between atoms: _97  and  _98
REMARK   43  A    between atoms: _101  and  _103
REMARK   44  A    between atoms: _103  and  _104
REMARK   45  A    between atoms: _103  and  _106
REMARK   46  A    between atoms: _109  and  _111
REMARK   47  A    between atoms: _111  and  _112
REMARK   48  A    between atoms: _111  and  _114
REMARK   49  A    between atoms: _117  and  _119
REMARK   50  A    between atoms: _119  and  _120
REMARK   51  A    between atoms: _122  and  _124
REMARK   52  A    between atoms: _124  and  _125
REMARK   53  A    between atoms: _127  and  _129
REMARK   54  A    between atoms: _129  and  _130
REMARK   55  A    between atoms: _129  and  _132
REMARK   56  A    between atoms: _132  and  _133
REMARK   57  A    between atoms: _136  and  _138
REMARK   58  A    between atoms: _138  and  _139
REMARK   59  A    between atoms: _141  and  _143
REMARK   60  A    between atoms: _143  and  _144
REMARK   61  A    between atoms: _146  and  _148
REMARK   62  A    between atoms: _148  and  _149
REMARK   63  A    between atoms: _148  and  _151
REMARK   64  A    between atoms: _151  and  _152
REMARK   65  A    between atoms: _158  and  _160
REMARK   66  A    between atoms: _160  and  _161
REMARK   67  A    between atoms: _160  and  _163
REMARK   68  A    between atoms: _163  and  _164
REMARK   69  A    between atoms: _164  and  _165
REMARK   70  A    between atoms: _167  and  _169
REMARK   71  A    between atoms: _169  and  _170
REMARK   72  A    between atoms: _169  and  _172
REMARK   73  A    between atoms: _172  and  _173
REMARK   74  A    between atoms: _176  and  _178
REMARK   75  A    between atoms: _178  and  _179
REMARK   76  A    between atoms: _178  and  _181
REMARK   77  A    between atoms: _181  and  _182
REMARK   78  A    between atoms: _186  and  _187
REMARK   79  A    between atoms: _192  and  _194
REMARK   80  A    between atoms: _194  and  _195
REMARK   81  A    between atoms: _198  and  _200
REMARK   82  A    between atoms: _200  and  _201
REMARK   83  A    between atoms: _200  and  _203
REMARK   84  A    between atoms: _203  and  _204
REMARK   85  A    between atoms: _209  and  _211
REMARK   86  A    between atoms: _211  and  _212
REMARK   87  A    between atoms: _211  and  _214
REMARK   88  A    between atoms: _214  and  _215
REMARK   89  A    between atoms: _218  and  _220
REMARK   90  A    between atoms: _220  and  _221
REMARK   91  A    between atoms: _220  and  _223
REMARK   92  A    between atoms: _223  and  _224
REMARK   93  A    between atoms: _227  and  _229
REMARK   94  A    between atoms: _229  and  _230
REMARK   95  A    between atoms: _232  and  _234
REMARK   96  A    between atoms: _234  and  _235
REMARK   97  A    between atoms: _234  and  _237
REMARK   98  A    between atoms: _237  and  _238
REMARK   99  A    between atoms: _238  and  _239
REMARK  100  A    between atoms: _239  and  _240
REMARK  101  A    between atoms: _249  and  _251
REMARK  102  A    between atoms: _251  and  _252
REMARK  103  A    between atoms: _251  and  _254
REMARK  104  A    between atoms: _254  and  _255
REMARK  105  A    between atoms: _260  and  _262
REMARK  106  A    between atoms: _262  and  _263
REMARK  107  A    between atoms: _262  and  _265
REMARK  108  A    between atoms: _265  and  _266
REMARK  109  A    between atoms: _266  and  _267
REMARK  110  A    between atoms: _267  and  _268
REMARK  111  A    between atoms: _277  and  _279
REMARK  112  A    between atoms: _279  and  _280
REMARK  113  A    between atoms: _279  and  _282
REMARK  114  A    between atoms: _282  and  _283
REMARK  115  A    between atoms: _289  and  _291
REMARK  116  A    between atoms: _291  and  _292
REMARK  117  A    between atoms: _291  and  _294
REMARK  118  A    between atoms: _294  and  _295
REMARK  119  A    between atoms: _298  and  _300
REMARK  120  A    between atoms: _300  and  _301
REMARK  121  A    between atoms: _300  and  _303
REMARK  122  A    between atoms: _303  and  _304
REMARK  123  A    between atoms: _307  and  _309
REMARK  124  A    between atoms: _309  and  _310
REMARK  125  A    between atoms: _309  and  _312
REMARK  126  A    between atoms: _312  and  _313
REMARK  127  A    between atoms: _316  and  _318
REMARK  128  A    between atoms: _318  and  _319
REMARK  129  A    between atoms: _318  and  _321
REMARK  130  A    between atoms: _321  and  _322
REMARK  131  A    between atoms: _325  and  _327
REMARK  132  A    between atoms: _327  and  _328
REMARK  133  A    between atoms: _330  and  _332
REMARK  134  A    between atoms: _332  and  _333
REMARK  135  A    between atoms: _336  and  _338
REMARK  136  A    between atoms: _338  and  _339
REMARK  137  A    between atoms: _338  and  _341
REMARK  138  A    between atoms: _341  and  _342
REMARK  139  A    between atoms: _345  and  _347
REMARK  140  A    between atoms: _347  and  _348
REMARK  141  A    between atoms: _347  and  _350
REMARK  142  A    between atoms: _350  and  _351
REMARK  143  A    between atoms: _354  and  _356
REMARK  144  A    between atoms: _356  and  _357
REMARK  145  A    between atoms: _356  and  _359
REMARK  146  A    between atoms: _359  and  _360
REMARK  147  A    between atoms: _363  and  _365
REMARK  148  A    between atoms: _365  and  _366
REMARK  149  A    between atoms: _365  and  _368
REMARK  150  A    between atoms: _368  and  _369
REMARK  151  A    between atoms: _372  and  _374
REMARK  152  A    between atoms: _374  and  _375
REMARK  153  A    between atoms: _374  and  _377
REMARK  154  A    between atoms: _377  and  _378
REMARK  155  A    between atoms: _378  and  _379
REMARK  156  A    between atoms: _382  and  _384
REMARK  157  A    between atoms: _384  and  _385
REMARK  158  A    between atoms: _384  and  _387
REMARK  159  A    between atoms: _387  and  _388
REMARK  160  A    between atoms: _388  and  _389
REMARK  161  A    between atoms: _389  and  _390
REMARK  162  A    between atoms: _390  and  _391
REMARK  163  A    between atoms: _395  and  _397
REMARK  164  A    between atoms: _397  and  _398
REMARK  165  A    between atoms: _397  and  _400
REMARK  166  A    between atoms: _403  and  _405
REMARK  167  A    between atoms: _405  and  _406
REMARK  168  A    between atoms: _405  and  _408
REMARK  169  A    between atoms: _411  and  _413
REMARK  170  A    between atoms: _413  and  _414
REMARK  171  A    between atoms: _416  and  _418
REMARK  172  A    between atoms: _418  and  _419
REMARK  173  A    between atoms: _421  and  _423
REMARK  174  A    between atoms: _423  and  _424
REMARK  175  A    between atoms: _423  and  _426
REMARK  176  A    between atoms: _426  and  _427
REMARK  177  A    between atoms: _430  and  _432
REMARK  178  A    between atoms: _432  and  _433
REMARK  179  A    between atoms: _435  and  _437
REMARK  180  A    between atoms: _437  and  _438
REMARK  181  A    between atoms: _440  and  _442
REMARK  182  A    between atoms: _442  and  _443
REMARK  183  A    between atoms: _442  and  _445
REMARK  184  A    between atoms: _445  and  _446
REMARK  185  A    between atoms: _446  and  _447
REMARK  186  A    between atoms: _449  and  _451
REMARK  187  A    between atoms: _451  and  _452
REMARK  188  A    between atoms: _451  and  _454
REMARK  189  A    between atoms: _454  and  _455
REMARK  190  A    between atoms: _459  and  _460
REMARK  191  A    between atoms: _465  and  _467
REMARK  192  A    between atoms: _467  and  _468
REMARK  193  A    between atoms: _467  and  _470
REMARK  194  A    between atoms: _470  and  _471
REMARK  195  A    between atoms: _475  and  _476
REMARK  196  A    between atoms: _481  and  _483
REMARK  197  A    between atoms: _483  and  _484
REMARK  198  A    between atoms: _487  and  _489
REMARK  199  A    between atoms: _489  and  _490
REMARK  200  A    between atoms: _489  and  _492
REMARK  201  A    between atoms: _492  and  _493
REMARK  202  A    between atoms: _498  and  _500
REMARK  203  A    between atoms: _500  and  _501
REMARK  204  A    between atoms: _500  and  _503
REMARK  205  A    between atoms: _503  and  _504
REMARK  206  A    between atoms: _507  and  _509
REMARK  207  A    between atoms: _509  and  _510
REMARK  208  A    between atoms: _509  and  _512
REMARK  209  A    between atoms: _512  and  _513
REMARK  210  A    between atoms: _516  and  _518
REMARK  211  A    between atoms: _518  and  _519
REMARK  212  A    between atoms: _521  and  _523
REMARK  213  A    between atoms: _523  and  _524
REMARK  214  A    between atoms: _523  and  _526
REMARK  215  A    between atoms: _526  and  _527
REMARK  216  A    between atoms: _527  and  _528
REMARK  217  A    between atoms: _528  and  _529
REMARK  218  A    between atoms: _538  and  _540
REMARK  219  A    between atoms: _540  and  _541
REMARK  220  A    between atoms: _540  and  _543
REMARK  221  A    between atoms: _543  and  _544
REMARK                            x       y       z     vdW  Elec       q    Type
REMARK                         _______ _______ _______ _____ _____    ______ ____
ROOT
ATOM      1  CA  ILE A   6      -9.194  47.276   9.020  0.00  0.00    +0.149 C 
ENDROOT
BRANCH   1   2
ATOM      2  C   ILE A   6      -8.322  47.558  10.251  0.00  0.00    +0.241 C 
ATOM      3  O   ILE A   6      -8.810  47.634  11.363  0.00  0.00    -0.273 OA
ATOM      4  N   ILE A   7      -7.018  47.684  10.047  0.00  0.00    -0.297 N 
ATOM      5  H   ILE A   7      -6.622  47.407   9.126  0.00  0.00    +0.150 HD
BRANCH   4   6
ATOM      6  CA  ILE A   7      -6.123  48.200  11.077  0.00  0.00    +0.149 C 
BRANCH   6   7
ATOM      7  C   ILE A   7      -5.950  49.691  10.799  0.00  0.00    +0.241 C 
ATOM      8  N   GLY A   8      -6.369  50.519  11.747  0.00  0.00    -0.295 N 
ATOM      9  H   GLY A   8      -6.751  50.114  12.625  0.00  0.00    +0.150 HD
ATOM     10  O   ILE A   7      -5.455  50.069   9.739  0.00  0.00    -0.273 OA
BRANCH   8  11
ATOM     11  CA  GLY A   8      -6.319  51.958  11.617  0.00  0.00    +0.176 C 
BRANCH  11  12
ATOM     12  C   GLY A   8      -5.139  52.570  12.329  0.00  0.00    +0.243 C 
ATOM     13  O   GLY A   8      -4.323  51.877  12.945  0.00  0.00    -0.273 OA
ATOM     14  N   ARG A   9      -5.044  53.886  12.231  0.00  0.00    -0.297 N 
ATOM     15  H   ARG A   9      -5.816  54.415  11.778  0.00  0.00    +0.150 HD
BRANCH  14  16
ATOM     16  CA  ARG A   9      -3.878  54.624  12.744  0.00  0.00    +0.149 C 
BRANCH  16  17
ATOM     17  C   ARG A   9      -3.626  54.486  14.254  0.00  0.00    +0.241 C 
ATOM     18  N   ASN A  10      -4.680  54.271  15.050  0.00  0.00    -0.298 N 
ATOM     19  H   ASN A  10      -5.639  54.325  14.651  0.00  0.00    +0.150 HD
ATOM     20  O   ARG A   9      -2.467  54.590  14.674  0.00  0.00    -0.273 OA
BRANCH  18  21
ATOM     21  CA  ASN A  10      -4.509  53.959  16.479  0.00  0.00    +0.146 C 
BRANCH  21  22
ATOM     22  C   ASN A  10      -3.567  52.757  16.757  0.00  0.00    +0.227 C 
ATOM     23  O   ASN A  10      -2.851  52.740  17.770  0.00  0.00    -0.286 OA
ENDBRANCH  21  22
BRANCH  21  24
ATOM     24  CB  ASN A  10      -5.877  53.802  17.190  0.00  0.00    +0.112 C 
BRANCH  24  25
ATOM     25  CG  ASN A  10      -6.552  52.477  16.914  0.00  0.00    +0.222 C 
ATOM     26  ND2 ASN A  10      -6.866  51.731  17.969  0.00  0.00    -0.329 N 
ATOM     27 HD21 ASN A  10      -6.632  52.061  18.927  0.00  0.00    +0.145 HD
ATOM     28 HD22 ASN A  10      -7.345  50.818  17.836  0.00  0.00    +0.145 HD
ATOM     29  OD1 ASN A  10      -6.805  52.133  15.774  0.00  0.00    -0.275 OA
ENDBRANCH  24  25
ENDBRANCH  21  24
ENDBRANCH  18  21
ENDBRANCH  16  17
BRANCH  16  30
ATOM     30  CB  ARG A   9      -3.940  56.100  12.345  0.00  0.00    +0.033 C 
BRANCH  30  31
ATOM     31  CG  ARG A   9      -3.755  56.301  10.832  0.00  0.00    +0.045 C 
BRANCH  31  32
ATOM     32  CD  ARG A   9      -3.828  57.780  10.401  0.00  0.00    +0.174 C 
BRANCH  32  33
ATOM     33  NE  ARG A   9      -5.067  58.429  10.854  0.00  0.00    -0.265 N 
ATOM     34  CZ  ARG A   9      -5.190  59.167  11.963  0.00  0.00    +0.342 C 
ATOM     35  NH2 ARG A   9      -4.167  59.405  12.768  0.00  0.00    -0.292 N 
ATOM     36 HH21 ARG A   9      -4.301  59.984  13.622  0.00  0.00    +0.255 HD
ATOM     37 HH22 ARG A   9      -3.229  59.013  12.547  0.00  0.00    +0.255 HD
ATOM     38  NH1 ARG A   9      -6.359  59.678  12.278  0.00  0.00    -0.292 N 
ATOM     39 HH11 ARG A   9      -6.460  60.253  13.139  0.00  0.00    +0.255 HD
ATOM     40 HH12 ARG A   9      -7.183  59.508  11.666  0.00  0.00    +0.255 HD
ATOM     41  HE  ARG A   9      -5.915  58.304  10.265  0.00  0.00    +0.259 HD
ENDBRANCH  32  33
ENDBRANCH  31  32
ENDBRANCH  30  31
ENDBRANCH  16  30
ENDBRANCH  14  16
ENDBRANCH  11  12
ENDBRANCH   8  11
ENDBRANCH   6   7
BRANCH   6  42
ATOM     42  CB  ILE A   7      -4.736  47.518  11.085  0.00  0.00    +0.027 C 
ATOM     43  CG2 ILE A   7      -3.863  48.101  12.280  0.00  0.00    +0.002 C 
BRANCH  42  44
ATOM     44  CG1 ILE A   7      -4.892  45.991  11.085  0.00  0.00    +0.002 C 
ATOM     45  CD1 ILE A   7      -5.712  45.405  12.288  0.00  0.00    +0.000 C 
ENDBRANCH  42  44
ENDBRANCH   6  42
ENDBRANCH   4   6
ENDBRANCH   1   2
BRANCH   1  47
ATOM     46  C   ASN A   5      -9.969  44.987   8.466  0.00  0.00    +0.241 C 
ATOM     47  N   ILE A   6      -9.936  46.050   9.273  0.00  0.00    -0.297 N 
ATOM     48  H   ILE A   6     -10.485  45.998  10.154  0.00  0.00    +0.150 HD
ATOM     49  O   ASN A   5      -9.275  44.865   7.441  0.00  0.00    -0.273 OA
BRANCH  46  50
ATOM     50  CA  ASN A   5     -10.970  43.873   8.861  0.00  0.00    +0.158 C 
BRANCH  50  53
ATOM     51  C   ALA A   4     -12.577  44.441   7.142  0.00  0.00    +0.241 C 
ATOM     52  O   ALA A   4     -12.960  45.431   7.775  0.00  0.00    -0.273 OA
ATOM     53  N   ASN A   5     -11.722  43.561   7.647  0.00  0.00    -0.297 N 
ATOM     54  H   ASN A   5     -11.586  42.644   7.176  0.00  0.00    +0.150 HD
BRANCH  51  55
ATOM     55  CA  ALA A   4     -13.091  44.147   5.737  0.00  0.00    +0.149 C 
ATOM     56  CB  ALA A   4     -12.177  44.818   4.655  0.00  0.00    +0.031 C 
BRANCH  55  58
ATOM     57  C   PRO A   3     -15.343  44.057   4.742  0.00  0.00    +0.241 C 
ATOM     58  N   ALA A   4     -14.483  44.586   5.619  0.00  0.00    -0.297 N 
ATOM     59  H   ALA A   4     -14.818  45.345   6.246  0.00  0.00    +0.150 HD
ATOM     60  O   PRO A   3     -14.989  43.328   3.811  0.00  0.00    -0.273 OA
BRANCH  57  67
ATOM     61  C   THR A   2     -17.258  44.793   7.320  0.00  0.00    +0.246 C 
ATOM     62  O   THR A   2     -17.225  43.584   7.572  0.00  0.00    -0.273 OA
ATOM     63  N   PRO A   3     -17.151  45.274   6.070  0.00  0.00    -0.272 N 
ATOM     64  CD  PRO A   3     -17.512  46.651   5.667  0.00  0.00    +0.094 C 
ATOM     65  CG  PRO A   3     -17.158  46.695   4.236  0.00  0.00    +0.024 C 
ATOM     66  CB  PRO A   3     -17.294  45.300   3.731  0.00  0.00    +0.031 C 
ATOM     67  CA  PRO A   3     -16.836  44.433   4.904  0.00  0.00    +0.152 C 
BRANCH  61  68
ATOM     68  CA  THR A   2     -17.473  45.807   8.453  0.00  0.00    +0.176 C 
BRANCH  68  70
ATOM     69  C   PRO A   1     -19.710  45.052   9.180  0.00  0.00    +0.239 C 
ATOM     70  N   THR A   2     -18.410  45.259   9.443  0.00  0.00    -0.295 N 
ATOM     71  H   THR A   2     -18.050  45.021  10.389  0.00  0.00    +0.150 HD
ATOM     72  O   PRO A   1     -20.231  45.312   8.094  0.00  0.00    -0.274 OA
BRANCH  69  77
ATOM     73  N   PRO A   1     -20.353  44.919  11.657  0.00  0.00    -0.210 NA
ATOM     74  CD  PRO A   1     -21.573  45.558  12.192  0.00  0.00    +0.089 C 
ATOM     75  CG  PRO A   1     -22.433  45.727  10.982  0.00  0.00    +0.021 C 
ATOM     76  CB  PRO A   1     -22.067  44.647  10.057  0.00  0.00    +0.028 C 
ATOM     77  CA  PRO A   1     -20.564  44.411  10.292  0.00  0.00    +0.149 C 
ENDBRANCH  69  77
ENDBRANCH  68  70
BRANCH  68  78
ATOM     78  CB  THR A   2     -16.082  46.220   9.098  0.00  0.00    +0.137 C 
ATOM     79  CG2 THR A   2     -15.377  45.026   9.763  0.00  0.00    +0.034 C 
BRANCH  78  80
ATOM     80  OG1 THR A   2     -15.231  46.790   8.091  0.00  0.00    -0.382 OA
ATOM     81  HG1 THR A   2     -14.366  47.046   8.498  0.00  0.00    +0.210 HD
ENDBRANCH  78  80
ENDBRANCH  68  78
ENDBRANCH  61  68
ENDBRANCH  57  67
ENDBRANCH  55  58
ENDBRANCH  51  55
ENDBRANCH  50  53
BRANCH  50  82
ATOM     82  CB  ASN A   5     -10.248  42.633   9.426  0.00  0.00    +0.114 C 
BRANCH  82  83
ATOM     83  CG  ASN A   5     -11.216  41.499   9.853  0.00  0.00    +0.222 C 
ATOM     84  OD1 ASN A   5     -12.297  41.733  10.392  0.00  0.00    -0.275 OA
ATOM     85  ND2 ASN A   5     -10.797  40.269   9.624  0.00  0.00    -0.329 N 
ATOM     86 HD21 ASN A   5     -11.387  39.459   9.902  0.00  0.00    +0.145 HD
ATOM     87 HD22 ASN A   5      -9.877  40.110   9.166  0.00  0.00    +0.145 HD
ENDBRANCH  82  83
ENDBRANCH  50  82
ENDBRANCH  46  50
ENDBRANCH   1  47
BRANCH   1  88
ATOM     88  CB  ILE A   6     -10.174  48.489   8.811  0.00  0.00    +0.027 C 
ATOM     89  CG2 ILE A   6      -9.452  49.829   8.959  0.00  0.00    +0.002 C 
BRANCH  88  90
ATOM     90  CG1 ILE A   6     -10.892  48.424   7.467  0.00  0.00    +0.002 C 
ATOM     91  CD1 ILE A   6     -12.184  49.331   7.454  0.00  0.00    +0.000 C 
ENDBRANCH  88  90
ENDBRANCH   1  88
TORSDOF 32
REMARK  Name = ../refined-set-2016/4m8x/4m8x_pocket.pdb
REMARK  221 active torsions:
REMARK  status: ('A' for Active; 'I' for Inactive)
REMARK    1  A    between atoms: _1  and  _3
REMARK    2  A    between atoms: _3  and  _4
REMARK    3  A    between atoms: _3  and  _6
REMARK    4  A    between atoms: _6  and  _7
REMARK    5  A    between atoms: _7  and  _8
REMARK    6  A    between atoms: _8  and  _9
REMARK    7  A    between atoms: _18  and  _20
REMARK    8  A    between atoms: _20  and  _21
REMARK    9  A    between atoms: _20  and  _23
REMARK   10  A    between atoms: _23  and  _24
REMARK   11  A    between atoms: _27  and  _29
REMARK   12  A    between atoms: _29  and  _30
REMARK   13  A    between atoms: _29  and  _32
REMARK   14  A    between atoms: _32  and  _33
REMARK   15  A    between atoms: _36  and  _38
REMARK   16  A    between atoms: _38  and  _39
REMARK   17  A    between atoms: _38  and  _41
REMARK   18  A    between atoms: _41  and  _42
REMARK   19  A    between atoms: _45  and  _47
REMARK   20  A    between atoms: _47  and  _48
REMARK   21  A    between atoms: _47  and  _50
REMARK   22  A    between atoms: _50  and  _51
REMARK   23  A    between atoms: _54  and  _56
REMARK   24  A    between atoms: _56  and  _57
REMARK   25  A    between atoms: _59  and  _61
REMARK   26  A    between atoms: _61  and  _62
REMARK   27  A    between atoms: _65  and  _67
REMARK   28  A    between atoms: _67  and  _68
REMARK   29  A    between atoms: _67  and  _70
REMARK   30  A    between atoms: _70  and  _71
REMARK   31  A    between atoms: _74  and  _76
REMARK   32  A    between atoms: _76  and  _77
REMARK   33  A    between atoms: _76  and  _79
REMARK   34  A    between atoms: _79  and  _80
REMARK   35  A    between atoms: _83  and  _85
REMARK   36  A    between atoms: _85  and  _86
REMARK   37  A    between atoms: _85  and  _88
REMARK   38  A    between atoms: _88  and  _89
REMARK   39  A    between atoms: _92  and  _94
REMARK   40  A    between atoms: _94  and  _95
REMARK   41  A    between atoms: _94  and  _97
REMARK   42  A    between atoms: _97  and  _98
REMARK   43  A    between atoms: _101  and  _103
REMARK   44  A    between atoms: _103  and  _104
REMARK   45  A    between atoms: _103  and  _106
REMARK   46  A    between atoms: _109  and  _111
REMARK   47  A    between atoms: _111  and  _112
REMARK   48  A    between atoms: _111  and  _114
REMARK   49  A    between atoms: _117  and  _119
REMARK   50  A    between atoms: _119  and  _120
REMARK   51  A    between atoms: _122  and  _124
REMARK   52  A    between atoms: _124  and  _125
REMARK   53  A    between atoms: _127  and  _129
REMARK   54  A    between atoms: _129  and  _130
REMARK   55  A    between atoms: _129  and  _132
REMARK   56  A    between atoms: _132  and  _133
REMARK   57  A    between atoms: _136  and  _138
REMARK   58  A    between atoms: _138  and  _139
REMARK   59  A    between atoms: _141  and  _143
REMARK   60  A    between atoms: _143  and  _144
REMARK   61  A    between atoms: _146  and  _148
REMARK   62  A    between atoms: _148  and  _149
REMARK   63  A    between atoms: _148  and  _151
REMARK   64  A    between atoms: _151  and  _152
REMARK   65  A    between atoms: _158  and  _160
REMARK   66  A    between atoms: _160  and  _161
REMARK   67  A    between atoms: _160  and  _163
REMARK   68  A    between atoms: _163  and  _164
REMARK   69  A    between atoms: _164  and  _165
REMARK   70  A    between atoms: _167  and  _169
REMARK   71  A    between atoms: _169  and  _170
REMARK   72  A    between atoms: _169  and  _172
REMARK   73  A    between atoms: _172  and  _173
REMARK   74  A    between atoms: _176  and  _178
REMARK   75  A    between atoms: _178  and  _179
REMARK   76  A    between atoms: _178  and  _181
REMARK   77  A    between atoms: _181  and  _182
REMARK   78  A    between atoms: _186  and  _187
REMARK   79  A    between atoms: _192  and  _194
REMARK   80  A    between atoms: _194  and  _195
REMARK   81  A    between atoms: _198  and  _200
REMARK   82  A    between atoms: _200  and  _201
REMARK   83  A    between atoms: _200  and  _203
REMARK   84  A    between atoms: _203  and  _204
REMARK   85  A    between atoms: _209  and  _211
REMARK   86  A    between atoms: _211  and  _212
REMARK   87  A    between atoms: _211  and  _214
REMARK   88  A    between atoms: _214  and  _215
REMARK   89  A    between atoms: _218  and  _220
REMARK   90  A    between atoms: _220  and  _221
REMARK   91  A    between atoms: _220  and  _223
REMARK   92  A    between atoms: _223  and  _224
REMARK   93  A    between atoms: _227  and  _229
REMARK   94  A    between atoms: _229  and  _230
REMARK   95  A    between atoms: _232  and  _234
REMARK   96  A    between atoms: _234  and  _235
REMARK   97  A    between atoms: _234  and  _237
REMARK   98  A    between atoms: _237  and  _238
REMARK   99  A    between atoms: _238  and  _239
REMARK  100  A    between atoms: _239  and  _240
REMARK  101  A    between atoms: _249  and  _251
REMARK  102  A    between atoms: _251  and  _252
REMARK  103  A    between atoms: _251  and  _254
REMARK  104  A    between atoms: _254  and  _255
REMARK  105  A    between atoms: _260  and  _262
REMARK  106  A    between atoms: _262  and  _263
REMARK  107  A    between atoms: _262  and  _265
REMARK  108  A    between atoms: _265  and  _266
REMARK  109  A    between atoms: _266  and  _267
REMARK  110  A    between atoms: _267  and  _268
REMARK  111  A    between atoms: _277  and  _279
REMARK  112  A    between atoms: _279  and  _280
REMARK  113  A    between atoms: _279  and  _282
REMARK  114  A    between atoms: _282  and  _283
REMARK  115  A    between atoms: _289  and  _291
REMARK  116  A    between atoms: _291  and  _292
REMARK  117  A    between atoms: _291  and  _294
REMARK  118  A    between atoms: _294  and  _295
REMARK  119  A    between atoms: _298  and  _300
REMARK  120  A    between atoms: _300  and  _301
REMARK  121  A    between atoms: _300  and  _303
REMARK  122  A    between atoms: _303  and  _304
REMARK  123  A    between atoms: _307  and  _309
REMARK  124  A    between atoms: _309  and  _310
REMARK  125  A    between atoms: _309  and  _312
REMARK  126  A    between atoms: _312  and  _313
REMARK  127  A    between atoms: _316  and  _318
REMARK  128  A    between atoms: _318  and  _319
REMARK  129  A    between atoms: _318  and  _321
REMARK  130  A    between atoms: _321  and  _322
REMARK  131  A    between atoms: _325  and  _327
REMARK  132  A    between atoms: _327  and  _328
REMARK  133  A    between atoms: _330  and  _332
REMARK  134  A    between atoms: _332  and  _333
REMARK  135  A    between atoms: _336  and  _338
REMARK  136  A    between atoms: _338  and  _339
REMARK  137  A    between atoms: _338  and  _341
REMARK  138  A    between atoms: _341  and  _342
REMARK  139  A    between atoms: _345  and  _347
REMARK  140  A    between atoms: _347  and  _348
REMARK  141  A    between atoms: _347  and  _350
REMARK  142  A    between atoms: _350  and  _351
REMARK  143  A    between atoms: _354  and  _356
REMARK  144  A    between atoms: _356  and  _357
REMARK  145  A    between atoms: _356  and  _359
REMARK  146  A    between atoms: _359  and  _360
REMARK  147  A    between atoms: _363  and  _365
REMARK  148  A    between atoms: _365  and  _366
REMARK  149  A    between atoms: _365  and  _368
REMARK  150  A    between atoms: _368  and  _369
REMARK  151  A    between atoms: _372  and  _374
REMARK  152  A    between atoms: _374  and  _375
REMARK  153  A    between atoms: _374  and  _377
REMARK  154  A    between atoms: _377  and  _378
REMARK  155  A    between atoms: _378  and  _379
REMARK  156  A    between atoms: _382  and  _384
REMARK  157  A    between atoms: _384  and  _385
REMARK  158  A    between atoms: _384  and  _387
REMARK  159  A    between atoms: _387  and  _388
REMARK  160  A    between atoms: _388  and  _389
REMARK  161  A    between atoms: _389  and  _390
REMARK  162  A    between atoms: _390  and  _391
REMARK  163  A    between atoms: _395  and  _397
REMARK  164  A    between atoms: _397  and  _398
REMARK  165  A    between atoms: _397  and  _400
REMARK  166  A    between atoms: _403  and  _405
REMARK  167  A    between atoms: _405  and  _406
REMARK  168  A    between atoms: _405  and  _408
REMARK  169  A    between atoms: _411  and  _413
REMARK  170  A    between atoms: _413  and  _414
REMARK  171  A    between atoms: _416  and  _418
REMARK  172  A    between atoms: _418  and  _419
REMARK  173  A    between atoms: _421  and  _423
REMARK  174  A    between atoms: _423  and  _424
REMARK  175  A    between atoms: _423  and  _426
REMARK  176  A    between atoms: _426  and  _427
REMARK  177  A    between atoms: _430  and  _432
REMARK  178  A    between atoms: _432  and  _433
REMARK  179  A    between atoms: _435  and  _437
REMARK  180  A    between atoms: _437  and  _438
REMARK  181  A    between atoms: _440  and  _442
REMARK  182  A    between atoms: _442  and  _443
REMARK  183  A    between atoms: _442  and  _445
REMARK  184  A    between atoms: _445  and  _446
REMARK  185  A    between atoms: _446  and  _447
REMARK  186  A    between atoms: _449  and  _451
REMARK  187  A    between atoms: _451  and  _452
REMARK  188  A    between atoms: _451  and  _454
REMARK  189  A    between atoms: _454  and  _455
REMARK  190  A    between atoms: _459  and  _460
REMARK  191  A    between atoms: _465  and  _467
REMARK  192  A    between atoms: _467  and  _468
REMARK  193  A    between atoms: _467  and  _470
REMARK  194  A    between atoms: _470  and  _471
REMARK  195  A    between atoms: _475  and  _476
REMARK  196  A    between atoms: _481  and  _483
REMARK  197  A    between atoms: _483  and  _484
REMARK  198  A    between atoms: _487  and  _489
REMARK  199  A    between atoms: _489  and  _490
REMARK  200  A    between atoms: _489  and  _492
REMARK  201  A    between atoms: _492  and  _493
REMARK  202  A    between atoms: _498  and  _500
REMARK  203  A    between atoms: _500  and  _501
REMARK  204  A    between atoms: _500  and  _503
REMARK  205  A    between atoms: _503  and  _504
REMARK  206  A    between atoms: _507  and  _509
REMARK  207  A    between atoms: _509  and  _510
REMARK  208  A    between atoms: _509  and  _512
REMARK  209  A    between atoms: _512  and  _513
REMARK  210  A    between atoms: _516  and  _518
REMARK  211  A    between atoms: _518  and  _519
REMARK  212  A    between atoms: _521  and  _523
REMARK  213  A    between atoms: _523  and  _524
REMARK  214  A    between atoms: _523  and  _526
REMARK  215  A    between atoms: _526  and  _527
REMARK  216  A    between atoms: _527  and  _528
REMARK  217  A    between atoms: _528  and  _529
REMARK  218  A    between atoms: _538  and  _540
REMARK  219  A    between atoms: _540  and  _541
REMARK  220  A    between atoms: _540  and  _543
REMARK  221  A    between atoms: _543  and  _544
REMARK                            x       y       z     vdW  Elec       q    Type
REMARK                         _______ _______ _______ _____ _____    ______ ____
ROOT
ATOM      1  O   HOH     1      -6.317  48.482  -0.385  0.00  0.00    +0.000 OA
ENDROOT
TORSDOF 0
REMARK  Name = ../refined-set-2016/4m8x/4m8x_pocket.pdb
REMARK  221 active torsions:
REMARK  status: ('A' for Active; 'I' for Inactive)
REMARK    1  A    between atoms: _1  and  _3
REMARK    2  A    between atoms: _3  and  _4
REMARK    3  A    between atoms: _3  and  _6
REMARK    4  A    between atoms: _6  and  _7
REMARK    5  A    between atoms: _7  and  _8
REMARK    6  A    between atoms: _8  and  _9
REMARK    7  A    between atoms: _18  and  _20
REMARK    8  A    between atoms: _20  and  _21
REMARK    9  A    between atoms: _20  and  _23
REMARK   10  A    between atoms: _23  and  _24
REMARK   11  A    between atoms: _27  and  _29
REMARK   12  A    between atoms: _29  and  _30
REMARK   13  A    between atoms: _29  and  _32
REMARK   14  A    between atoms: _32  and  _33
REMARK   15  A    between atoms: _36  and  _38
REMARK   16  A    between atoms: _38  and  _39
REMARK   17  A    between atoms: _38  and  _41
REMARK   18  A    between atoms: _41  and  _42
REMARK   19  A    between atoms: _45  and  _47
REMARK   20  A    between atoms: _47  and  _48
REMARK   21  A    between atoms: _47  and  _50
REMARK   22  A    between atoms: _50  and  _51
REMARK   23  A    between atoms: _54  and  _56
REMARK   24  A    between atoms: _56  and  _57
REMARK   25  A    between atoms: _59  and  _61
REMARK   26  A    between atoms: _61  and  _62
REMARK   27  A    between atoms: _65  and  _67
REMARK   28  A    between atoms: _67  and  _68
REMARK   29  A    between atoms: _67  and  _70
REMARK   30  A    between atoms: _70  and  _71
REMARK   31  A    between atoms: _74  and  _76
REMARK   32  A    between atoms: _76  and  _77
REMARK   33  A    between atoms: _76  and  _79
REMARK   34  A    between atoms: _79  and  _80
REMARK   35  A    between atoms: _83  and  _85
REMARK   36  A    between atoms: _85  and  _86
REMARK   37  A    between atoms: _85  and  _88
REMARK   38  A    between atoms: _88  and  _89
REMARK   39  A    between atoms: _92  and  _94
REMARK   40  A    between atoms: _94  and  _95
REMARK   41  A    between atoms: _94  and  _97
REMARK   42  A    between atoms: _97  and  _98
REMARK   43  A    between atoms: _101  and  _103
REMARK   44  A    between atoms: _103  and  _104
REMARK   45  A    between atoms: _103  and  _106
REMARK   46  A    between atoms: _109  and  _111
REMARK   47  A    between atoms: _111  and  _112
REMARK   48  A    between atoms: _111  and  _114
REMARK   49  A    between atoms: _117  and  _119
REMARK   50  A    between atoms: _119  and  _120
REMARK   51  A    between atoms: _122  and  _124
REMARK   52  A    between atoms: _124  and  _125
REMARK   53  A    between atoms: _127  and  _129
REMARK   54  A    between atoms: _129  and  _130
REMARK   55  A    between atoms: _129  and  _132
REMARK   56  A    between atoms: _132  and  _133
REMARK   57  A    between atoms: _136  and  _138
REMARK   58  A    between atoms: _138  and  _139
REMARK   59  A    between atoms: _141  and  _143
REMARK   60  A    between atoms: _143  and  _144
REMARK   61  A    between atoms: _146  and  _148
REMARK   62  A    between atoms: _148  and  _149
REMARK   63  A    between atoms: _148  and  _151
REMARK   64  A    between atoms: _151  and  _152
REMARK   65  A    between atoms: _158  and  _160
REMARK   66  A    between atoms: _160  and  _161
REMARK   67  A    between atoms: _160  and  _163
REMARK   68  A    between atoms: _163  and  _164
REMARK   69  A    between atoms: _164  and  _165
REMARK   70  A    between atoms: _167  and  _169
REMARK   71  A    between atoms: _169  and  _170
REMARK   72  A    between atoms: _169  and  _172
REMARK   73  A    between atoms: _172  and  _173
REMARK   74  A    between atoms: _176  and  _178
REMARK   75  A    between atoms: _178  and  _179
REMARK   76  A    between atoms: _178  and  _181
REMARK   77  A    between atoms: _181  and  _182
REMARK   78  A    between atoms: _186  and  _187
REMARK   79  A    between atoms: _192  and  _194
REMARK   80  A    between atoms: _194  and  _195
REMARK   81  A    between atoms: _198  and  _200
REMARK   82  A    between atoms: _200  and  _201
REMARK   83  A    between atoms: _200  and  _203
REMARK   84  A    between atoms: _203  and  _204
REMARK   85  A    between atoms: _209  and  _211
REMARK   86  A    between atoms: _211  and  _212
REMARK   87  A    between atoms: _211  and  _214
REMARK   88  A    between atoms: _214  and  _215
REMARK   89  A    between atoms: _218  and  _220
REMARK   90  A    between atoms: _220  and  _221
REMARK   91  A    between atoms: _220  and  _223
REMARK   92  A    between atoms: _223  and  _224
REMARK   93  A    between atoms: _227  and  _229
REMARK   94  A    between atoms: _229  and  _230
REMARK   95  A    between atoms: _232  and  _234
REMARK   96  A    between atoms: _234  and  _235
REMARK   97  A    between atoms: _234  and  _237
REMARK   98  A    between atoms: _237  and  _238
REMARK   99  A    between atoms: _238  and  _239
REMARK  100  A    between atoms: _239  and  _240
REMARK  101  A    between atoms: _249  and  _251
REMARK  102  A    between atoms: _251  and  _252
REMARK  103  A    between atoms: _251  and  _254
REMARK  104  A    between atoms: _254  and  _255
REMARK  105  A    between atoms: _260  and  _262
REMARK  106  A    between atoms: _262  and  _263
REMARK  107  A    between atoms: _262  and  _265
REMARK  108  A    between atoms: _265  and  _266
REMARK  109  A    between atoms: _266  and  _267
REMARK  110  A    between atoms: _267  and  _268
REMARK  111  A    between atoms: _277  and  _279
REMARK  112  A    between atoms: _279  and  _280
REMARK  113  A    between atoms: _279  and  _282
REMARK  114  A    between atoms: _282  and  _283
REMARK  115  A    between atoms: _289  and  _291
REMARK  116  A    between atoms: _291  and  _292
REMARK  117  A    between atoms: _291  and  _294
REMARK  118  A    between atoms: _294  and  _295
REMARK  119  A    between atoms: _298  and  _300
REMARK  120  A    between atoms: _300  and  _301
REMARK  121  A    between atoms: _300  and  _303
REMARK  122  A    between atoms: _303  and  _304
REMARK  123  A    between atoms: _307  and  _309
REMARK  124  A    between atoms: _309  and  _310
REMARK  125  A    between atoms: _309  and  _312
REMARK  126  A    between atoms: _312  and  _313
REMARK  127  A    between atoms: _316  and  _318
REMARK  128  A    between atoms: _318  and  _319
REMARK  129  A    between atoms: _318  and  _321
REMARK  130  A    between atoms: _321  and  _322
REMARK  131  A    between atoms: _325  and  _327
REMARK  132  A    between atoms: _327  and  _328
REMARK  133  A    between atoms: _330  and  _332
REMARK  134  A    between atoms: _332  and  _333
REMARK  135  A    between atoms: _336  and  _338
REMARK  136  A    between atoms: _338  and  _339
REMARK  137  A    between atoms: _338  and  _341
REMARK  138  A    between atoms: _341  and  _342
REMARK  139  A    between atoms: _345  and  _347
REMARK  140  A    between atoms: _347  and  _348
REMARK  141  A    between atoms: _347  and  _350
REMARK  142  A    between atoms: _350  and  _351
REMARK  143  A    between atoms: _354  and  _356
REMARK  144  A    between atoms: _356  and  _357
REMARK  145  A    between atoms: _356  and  _359
REMARK  146  A    between atoms: _359  and  _360
REMARK  147  A    between atoms: _363  and  _365
REMARK  148  A    between atoms: _365  and  _366
REMARK  149  A    between atoms: _365  and  _368
REMARK  150  A    between atoms: _368  and  _369
REMARK  151  A    between atoms: _372  and  _374
REMARK  152  A    between atoms: _374  and  _375
REMARK  153  A    between atoms: _374  and  _377
REMARK  154  A    between atoms: _377  and  _378
REMARK  155  A    between atoms: _378  and  _379
REMARK  156  A    between atoms: _382  and  _384
REMARK  157  A    between atoms: _384  and  _385
REMARK  158  A    between atoms: _384  and  _387
REMARK  159  A    between atoms: _387  and  _388
REMARK  160  A    between atoms: _388  and  _389
REMARK  161  A    between atoms: _389  and  _390
REMARK  162  A    between atoms: _390  and  _391
REMARK  163  A    between atoms: _395  and  _397
REMARK  164  A    between atoms: _397  and  _398
REMARK  165  A    between atoms: _397  and  _400
REMARK  166  A    between atoms: _403  and  _405
REMARK  167  A    between atoms: _405  and  _406
REMARK  168  A    between atoms: _405  and  _408
REMARK  169  A    between atoms: _411  and  _413
REMARK  170  A    between atoms: _413  and  _414
REMARK  171  A    between atoms: _416  and  _418
REMARK  172  A    between atoms: _418  and  _419
REMARK  173  A    between atoms: _421  and  _423
REMARK  174  A    between atoms: _423  and  _424
REMARK  175  A    between atoms: _423  and  _426
REMARK  176  A    between atoms: _426  and  _427
REMARK  177  A    between atoms: _430  and  _432
REMARK  178  A    between atoms: _432  and  _433
REMARK  179  A    between atoms: _435  and  _437
REMARK  180  A    between atoms: _437  and  _438
REMARK  181  A    between atoms: _440  and  _442
REMARK  182  A    between atoms: _442  and  _443
REMARK  183  A    between atoms: _442  and  _445
REMARK  184  A    between atoms: _445  and  _446
REMARK  185  A    between atoms: _446  and  _447
REMARK  186  A    between atoms: _449  and  _451
REMARK  187  A    between atoms: _451  and  _452
REMARK  188  A    between atoms: _451  and  _454
REMARK  189  A    between atoms: _454  and  _455
REMARK  190  A    between atoms: _459  and  _460
REMARK  191  A    between atoms: _465  and  _467
REMARK  192  A    between atoms: _467  and  _468
REMARK  193  A    between atoms: _467  and  _470
REMARK  194  A    between atoms: _470  and  _471
REMARK  195  A    between atoms: _475  and  _476
REMARK  196  A    between atoms: _481  and  _483
REMARK  197  A    between atoms: _483  and  _484
REMARK  198  A    between atoms: _487  and  _489
REMARK  199  A    between atoms: _489  and  _490
REMARK  200  A    between atoms: _489  and  _492
REMARK  201  A    between atoms: _492  and  _493
REMARK  202  A    between atoms: _498  and  _500
REMARK  203  A    between atoms: _500  and  _501
REMARK  204  A    between atoms: _500  and  _503
REMARK  205  A    between atoms: _503  and  _504
REMARK  206  A    between atoms: _507  and  _509
REMARK  207  A    between atoms: _509  and  _510
REMARK  208  A    between atoms: _509  and  _512
REMARK  209  A    between atoms: _512  and  _513
REMARK  210  A    between atoms: _516  and  _518
REMARK  211  A    between atoms: _518  and  _519
REMARK  212  A    between atoms: _521  and  _523
REMARK  213  A    between atoms: _523  and  _524
REMARK  214  A    between atoms: _523  and  _526
REMARK  215  A    between atoms: _526  and  _527
REMARK  216  A    between atoms: _527  and  _528
REMARK  217  A    between atoms: _528  and  _529
REMARK  218  A    between atoms: _538  and  _540
REMARK  219  A    between atoms: _540  and  _541
REMARK  220  A    between atoms: _540  and  _543
REMARK  221  A    between atoms: _543  and  _544
REMARK                            x       y       z     vdW  Elec       q    Type
REMARK                         _______ _______ _______ _____ _____    ______ ____
ROOT
ATOM      1  O   HOH     1      -9.240  47.691  -0.129  0.00  0.00    +0.000 OA
ENDROOT
TORSDOF 0
REMARK  Name = ../refined-set-2016/4m8x/4m8x_pocket.pdb
REMARK  221 active torsions:
REMARK  status: ('A' for Active; 'I' for Inactive)
REMARK    1  A    between atoms: _1  and  _3
REMARK    2  A    between atoms: _3  and  _4
REMARK    3  A    between atoms: _3  and  _6
REMARK    4  A    between atoms: _6  and  _7
REMARK    5  A    between atoms: _7  and  _8
REMARK    6  A    between atoms: _8  and  _9
REMARK    7  A    between atoms: _18  and  _20
REMARK    8  A    between atoms: _20  and  _21
REMARK    9  A    between atoms: _20  and  _23
REMARK   10  A    between atoms: _23  and  _24
REMARK   11  A    between atoms: _27  and  _29
REMARK   12  A    between atoms: _29  and  _30
REMARK   13  A    between atoms: _29  and  _32
REMARK   14  A    between atoms: _32  and  _33
REMARK   15  A    between atoms: _36  and  _38
REMARK   16  A    between atoms: _38  and  _39
REMARK   17  A    between atoms: _38  and  _41
REMARK   18  A    between atoms: _41  and  _42
REMARK   19  A    between atoms: _45  and  _47
REMARK   20  A    between atoms: _47  and  _48
REMARK   21  A    between atoms: _47  and  _50
REMARK   22  A    between atoms: _50  and  _51
REMARK   23  A    between atoms: _54  and  _56
REMARK   24  A    between atoms: _56  and  _57
REMARK   25  A    between atoms: _59  and  _61
REMARK   26  A    between atoms: _61  and  _62
REMARK   27  A    between atoms: _65  and  _67
REMARK   28  A    between atoms: _67  and  _68
REMARK   29  A    between atoms: _67  and  _70
REMARK   30  A    between atoms: _70  and  _71
REMARK   31  A    between atoms: _74  and  _76
REMARK   32  A    between atoms: _76  and  _77
REMARK   33  A    between atoms: _76  and  _79
REMARK   34  A    between atoms: _79  and  _80
REMARK   35  A    between atoms: _83  and  _85
REMARK   36  A    between atoms: _85  and  _86
REMARK   37  A    between atoms: _85  and  _88
REMARK   38  A    between atoms: _88  and  _89
REMARK   39  A    between atoms: _92  and  _94
REMARK   40  A    between atoms: _94  and  _95
REMARK   41  A    between atoms: _94  and  _97
REMARK   42  A    between atoms: _97  and  _98
REMARK   43  A    between atoms: _101  and  _103
REMARK   44  A    between atoms: _103  and  _104
REMARK   45  A    between atoms: _103  and  _106
REMARK   46  A    between atoms: _109  and  _111
REMARK   47  A    between atoms: _111  and  _112
REMARK   48  A    between atoms: _111  and  _114
REMARK   49  A    between atoms: _117  and  _119
REMARK   50  A    between atoms: _119  and  _120
REMARK   51  A    between atoms: _122  and  _124
REMARK   52  A    between atoms: _124  and  _125
REMARK   53  A    between atoms: _127  and  _129
REMARK   54  A    between atoms: _129  and  _130
REMARK   55  A    between atoms: _129  and  _132
REMARK   56  A    between atoms: _132  and  _133
REMARK   57  A    between atoms: _136  and  _138
REMARK   58  A    between atoms: _138  and  _139
REMARK   59  A    between atoms: _141  and  _143
REMARK   60  A    between atoms: _143  and  _144
REMARK   61  A    between atoms: _146  and  _148
REMARK   62  A    between atoms: _148  and  _149
REMARK   63  A    between atoms: _148  and  _151
REMARK   64  A    between atoms: _151  and  _152
REMARK   65  A    between atoms: _158  and  _160
REMARK   66  A    between atoms: _160  and  _161
REMARK   67  A    between atoms: _160  and  _163
REMARK   68  A    between atoms: _163  and  _164
REMARK   69  A    between atoms: _164  and  _165
REMARK   70  A    between atoms: _167  and  _169
REMARK   71  A    between atoms: _169  and  _170
REMARK   72  A    between atoms: _169  and  _172
REMARK   73  A    between atoms: _172  and  _173
REMARK   74  A    between atoms: _176  and  _178
REMARK   75  A    between atoms: _178  and  _179
REMARK   76  A    between atoms: _178  and  _181
REMARK   77  A    between atoms: _181  and  _182
REMARK   78  A    between atoms: _186  and  _187
REMARK   79  A    between atoms: _192  and  _194
REMARK   80  A    between atoms: _194  and  _195
REMARK   81  A    between atoms: _198  and  _200
REMARK   82  A    between atoms: _200  and  _201
REMARK   83  A    between atoms: _200  and  _203
REMARK   84  A    between atoms: _203  and  _204
REMARK   85  A    between atoms: _209  and  _211
REMARK   86  A    between atoms: _211  and  _212
REMARK   87  A    between atoms: _211  and  _214
REMARK   88  A    between atoms: _214  and  _215
REMARK   89  A    between atoms: _218  and  _220
REMARK   90  A    between atoms: _220  and  _221
REMARK   91  A    between atoms: _220  and  _223
REMARK   92  A    between atoms: _223  and  _224
REMARK   93  A    between atoms: _227  and  _229
REMARK   94  A    between atoms: _229  and  _230
REMARK   95  A    between atoms: _232  and  _234
REMARK   96  A    between atoms: _234  and  _235
REMARK   97  A    between atoms: _234  and  _237
REMARK   98  A    between atoms: _237  and  _238
REMARK   99  A    between atoms: _238  and  _239
REMARK  100  A    between atoms: _239  and  _240
REMARK  101  A    between atoms: _249  and  _251
REMARK  102  A    between atoms: _251  and  _252
REMARK  103  A    between atoms: _251  and  _254
REMARK  104  A    between atoms: _254  and  _255
REMARK  105  A    between atoms: _260  and  _262
REMARK  106  A    between atoms: _262  and  _263
REMARK  107  A    between atoms: _262  and  _265
REMARK  108  A    between atoms: _265  and  _266
REMARK  109  A    between atoms: _266  and  _267
REMARK  110  A    between atoms: _267  and  _268
REMARK  111  A    between atoms: _277  and  _279
REMARK  112  A    between atoms: _279  and  _280
REMARK  113  A    between atoms: _279  and  _282
REMARK  114  A    between atoms: _282  and  _283
REMARK  115  A    between atoms: _289  and  _291
REMARK  116  A    between atoms: _291  and  _292
REMARK  117  A    between atoms: _291  and  _294
REMARK  118  A    between atoms: _294  and  _295
REMARK  119  A    between atoms: _298  and  _300
REMARK  120  A    between atoms: _300  and  _301
REMARK  121  A    between atoms: _300  and  _303
REMARK  122  A    between atoms: _303  and  _304
REMARK  123  A    between atoms: _307  and  _309
REMARK  124  A    between atoms: _309  and  _310
REMARK  125  A    between atoms: _309  and  _312
REMARK  126  A    between atoms: _312  and  _313
REMARK  127  A    between atoms: _316  and  _318
REMARK  128  A    between atoms: _318  and  _319
REMARK  129  A    between atoms: _318  and  _321
REMARK  130  A    between atoms: _321  and  _322
REMARK  131  A    between atoms: _325  and  _327
REMARK  132  A    between atoms: _327  and  _328
REMARK  133  A    between atoms: _330  and  _332
REMARK  134  A    between atoms: _332  and  _333
REMARK  135  A    between atoms: _336  and  _338
REMARK  136  A    between atoms: _338  and  _339
REMARK  137  A    between atoms: _338  and  _341
REMARK  138  A    between atoms: _341  and  _342
REMARK  139  A    between atoms: _345  and  _347
REMARK  140  A    between atoms: _347  and  _348
REMARK  141  A    between atoms: _347  and  _350
REMARK  142  A    between atoms: _350  and  _351
REMARK  143  A    between atoms: _354  and  _356
REMARK  144  A    between atoms: _356  and  _357
REMARK  145  A    between atoms: _356  and  _359
REMARK  146  A    between atoms: _359  and  _360
REMARK  147  A    between atoms: _363  and  _365
REMARK  148  A    between atoms: _365  and  _366
REMARK  149  A    between atoms: _365  and  _368
REMARK  150  A    between atoms: _368  and  _369
REMARK  151  A    between atoms: _372  and  _374
REMARK  152  A    between atoms: _374  and  _375
REMARK  153  A    between atoms: _374  and  _377
REMARK  154  A    between atoms: _377  and  _378
REMARK  155  A    between atoms: _378  and  _379
REMARK  156  A    between atoms: _382  and  _384
REMARK  157  A    between atoms: _384  and  _385
REMARK  158  A    between atoms: _384  and  _387
REMARK  159  A    between atoms: _387  and  _388
REMARK  160  A    between atoms: _388  and  _389
REMARK  161  A    between atoms: _389  and  _390
REMARK  162  A    between atoms: _390  and  _391
REMARK  163  A    between atoms: _395  and  _397
REMARK  164  A    between atoms: _397  and  _398
REMARK  165  A    between atoms: _397  and  _400
REMARK  166  A    between atoms: _403  and  _405
REMARK  167  A    between atoms: _405  and  _406
REMARK  168  A    between atoms: _405  and  _408
REMARK  169  A    between atoms: _411  and  _413
REMARK  170  A    between atoms: _413  and  _414
REMARK  171  A    between atoms: _416  and  _418
REMARK  172  A    between atoms: _418  and  _419
REMARK  173  A    between atoms: _421  and  _423
REMARK  174  A    between atoms: _423  and  _424
REMARK  175  A    between atoms: _423  and  _426
REMARK  176  A    between atoms: _426  and  _427
REMARK  177  A    between atoms: _430  and  _432
REMARK  178  A    between atoms: _432  and  _433
REMARK  179  A    between atoms: _435  and  _437
REMARK  180  A    between atoms: _437  and  _438
REMARK  181  A    between atoms: _440  and  _442
REMARK  182  A    between atoms: _442  and  _443
REMARK  183  A    between atoms: _442  and  _445
REMARK  184  A    between atoms: _445  and  _446
REMARK  185  A    between atoms: _446  and  _447
REMARK  186  A    between atoms: _449  and  _451
REMARK  187  A    between atoms: _451  and  _452
REMARK  188  A    between atoms: _451  and  _454
REMARK  189  A    between atoms: _454  and  _455
REMARK  190  A    between atoms: _459  and  _460
REMARK  191  A    between atoms: _465  and  _467
REMARK  192  A    between atoms: _467  and  _468
REMARK  193  A    between atoms: _467  and  _470
REMARK  194  A    between atoms: _470  and  _471
REMARK  195  A    between atoms: _475  and  _476
REMARK  196  A    between atoms: _481  and  _483
REMARK  197  A    between atoms: _483  and  _484
REMARK  198  A    between atoms: _487  and  _489
REMARK  199  A    between atoms: _489  and  _490
REMARK  200  A    between atoms: _489  and  _492
REMARK  201  A    between atoms: _492  and  _493
REMARK  202  A    between atoms: _498  and  _500
REMARK  203  A    between atoms: _500  and  _501
REMARK  204  A    between atoms: _500  and  _503
REMARK  205  A    between atoms: _503  and  _504
REMARK  206  A    between atoms: _507  and  _509
REMARK  207  A    between atoms: _509  and  _510
REMARK  208  A    between atoms: _509  and  _512
REMARK  209  A    between atoms: _512  and  _513
REMARK  210  A    between atoms: _516  and  _518
REMARK  211  A    between atoms: _518  and  _519
REMARK  212  A    between atoms: _521  and  _523
REMARK  213  A    between atoms: _523  and  _524
REMARK  214  A    between atoms: _523  and  _526
REMARK  215  A    between atoms: _526  and  _527
REMARK  216  A    between atoms: _527  and  _528
REMARK  217  A    between atoms: _528  and  _529
REMARK  218  A    between atoms: _538  and  _540
REMARK  219  A    between atoms: _540  and  _541
REMARK  220  A    between atoms: _540  and  _543
REMARK  221  A    between atoms: _543  and  _544
REMARK                            x       y       z     vdW  Elec       q    Type
REMARK                         _______ _______ _______ _____ _____    ______ ____
ROOT
ATOM      1  O   HOH     1     -11.147  61.141   7.809  0.00  0.00    +0.000 OA
ENDROOT
TORSDOF 0
REMARK  Name = ../refined-set-2016/4m8x/4m8x_pocket.pdb
REMARK  221 active torsions:
REMARK  status: ('A' for Active; 'I' for Inactive)
REMARK    1  A    between atoms: _1  and  _3
REMARK    2  A    between atoms: _3  and  _4
REMARK    3  A    between atoms: _3  and  _6
REMARK    4  A    between atoms: _6  and  _7
REMARK    5  A    between atoms: _7  and  _8
REMARK    6  A    between atoms: _8  and  _9
REMARK    7  A    between atoms: _18  and  _20
REMARK    8  A    between atoms: _20  and  _21
REMARK    9  A    between atoms: _20  and  _23
REMARK   10  A    between atoms: _23  and  _24
REMARK   11  A    between atoms: _27  and  _29
REMARK   12  A    between atoms: _29  and  _30
REMARK   13  A    between atoms: _29  and  _32
REMARK   14  A    between atoms: _32  and  _33
REMARK   15  A    between atoms: _36  and  _38
REMARK   16  A    between atoms: _38  and  _39
REMARK   17  A    between atoms: _38  and  _41
REMARK   18  A    between atoms: _41  and  _42
REMARK   19  A    between atoms: _45  and  _47
REMARK   20  A    between atoms: _47  and  _48
REMARK   21  A    between atoms: _47  and  _50
REMARK   22  A    between atoms: _50  and  _51
REMARK   23  A    between atoms: _54  and  _56
REMARK   24  A    between atoms: _56  and  _57
REMARK   25  A    between atoms: _59  and  _61
REMARK   26  A    between atoms: _61  and  _62
REMARK   27  A    between atoms: _65  and  _67
REMARK   28  A    between atoms: _67  and  _68
REMARK   29  A    between atoms: _67  and  _70
REMARK   30  A    between atoms: _70  and  _71
REMARK   31  A    between atoms: _74  and  _76
REMARK   32  A    between atoms: _76  and  _77
REMARK   33  A    between atoms: _76  and  _79
REMARK   34  A    between atoms: _79  and  _80
REMARK   35  A    between atoms: _83  and  _85
REMARK   36  A    between atoms: _85  and  _86
REMARK   37  A    between atoms: _85  and  _88
REMARK   38  A    between atoms: _88  and  _89
REMARK   39  A    between atoms: _92  and  _94
REMARK   40  A    between atoms: _94  and  _95
REMARK   41  A    between atoms: _94  and  _97
REMARK   42  A    between atoms: _97  and  _98
REMARK   43  A    between atoms: _101  and  _103
REMARK   44  A    between atoms: _103  and  _104
REMARK   45  A    between atoms: _103  and  _106
REMARK   46  A    between atoms: _109  and  _111
REMARK   47  A    between atoms: _111  and  _112
REMARK   48  A    between atoms: _111  and  _114
REMARK   49  A    between atoms: _117  and  _119
REMARK   50  A    between atoms: _119  and  _120
REMARK   51  A    between atoms: _122  and  _124
REMARK   52  A    between atoms: _124  and  _125
REMARK   53  A    between atoms: _127  and  _129
REMARK   54  A    between atoms: _129  and  _130
REMARK   55  A    between atoms: _129  and  _132
REMARK   56  A    between atoms: _132  and  _133
REMARK   57  A    between atoms: _136  and  _138
REMARK   58  A    between atoms: _138  and  _139
REMARK   59  A    between atoms: _141  and  _143
REMARK   60  A    between atoms: _143  and  _144
REMARK   61  A    between atoms: _146  and  _148
REMARK   62  A    between atoms: _148  and  _149
REMARK   63  A    between atoms: _148  and  _151
REMARK   64  A    between atoms: _151  and  _152
REMARK   65  A    between atoms: _158  and  _160
REMARK   66  A    between atoms: _160  and  _161
REMARK   67  A    between atoms: _160  and  _163
REMARK   68  A    between atoms: _163  and  _164
REMARK   69  A    between atoms: _164  and  _165
REMARK   70  A    between atoms: _167  and  _169
REMARK   71  A    between atoms: _169  and  _170
REMARK   72  A    between atoms: _169  and  _172
REMARK   73  A    between atoms: _172  and  _173
REMARK   74  A    between atoms: _176  and  _178
REMARK   75  A    between atoms: _178  and  _179
REMARK   76  A    between atoms: _178  and  _181
REMARK   77  A    between atoms: _181  and  _182
REMARK   78  A    between atoms: _186  and  _187
REMARK   79  A    between atoms: _192  and  _194
REMARK   80  A    between atoms: _194  and  _195
REMARK   81  A    between atoms: _198  and  _200
REMARK   82  A    between atoms: _200  and  _201
REMARK   83  A    between atoms: _200  and  _203
REMARK   84  A    between atoms: _203  and  _204
REMARK   85  A    between atoms: _209  and  _211
REMARK   86  A    between atoms: _211  and  _212
REMARK   87  A    between atoms: _211  and  _214
REMARK   88  A    between atoms: _214  and  _215
REMARK   89  A    between atoms: _218  and  _220
REMARK   90  A    between atoms: _220  and  _221
REMARK   91  A    between atoms: _220  and  _223
REMARK   92  A    between atoms: _223  and  _224
REMARK   93  A    between atoms: _227  and  _229
REMARK   94  A    between atoms: _229  and  _230
REMARK   95  A    between atoms: _232  and  _234
REMARK   96  A    between atoms: _234  and  _235
REMARK   97  A    between atoms: _234  and  _237
REMARK   98  A    between atoms: _237  and  _238
REMARK   99  A    between atoms: _238  and  _239
REMARK  100  A    between atoms: _239  and  _240
REMARK  101  A    between atoms: _249  and  _251
REMARK  102  A    between atoms: _251  and  _252
REMARK  103  A    between atoms: _251  and  _254
REMARK  104  A    between atoms: _254  and  _255
REMARK  105  A    between atoms: _260  and  _262
REMARK  106  A    between atoms: _262  and  _263
REMARK  107  A    between atoms: _262  and  _265
REMARK  108  A    between atoms: _265  and  _266
REMARK  109  A    between atoms: _266  and  _267
REMARK  110  A    between atoms: _267  and  _268
REMARK  111  A    between atoms: _277  and  _279
REMARK  112  A    between atoms: _279  and  _280
REMARK  113  A    between atoms: _279  and  _282
REMARK  114  A    between atoms: _282  and  _283
REMARK  115  A    between atoms: _289  and  _291
REMARK  116  A    between atoms: _291  and  _292
REMARK  117  A    between atoms: _291  and  _294
REMARK  118  A    between atoms: _294  and  _295
REMARK  119  A    between atoms: _298  and  _300
REMARK  120  A    between atoms: _300  and  _301
REMARK  121  A    between atoms: _300  and  _303
REMARK  122  A    between atoms: _303  and  _304
REMARK  123  A    between atoms: _307  and  _309
REMARK  124  A    between atoms: _309  and  _310
REMARK  125  A    between atoms: _309  and  _312
REMARK  126  A    between atoms: _312  and  _313
REMARK  127  A    between atoms: _316  and  _318
REMARK  128  A    between atoms: _318  and  _319
REMARK  129  A    between atoms: _318  and  _321
REMARK  130  A    between atoms: _321  and  _322
REMARK  131  A    between atoms: _325  and  _327
REMARK  132  A    between atoms: _327  and  _328
REMARK  133  A    between atoms: _330  and  _332
REMARK  134  A    between atoms: _332  and  _333
REMARK  135  A    between atoms: _336  and  _338
REMARK  136  A    between atoms: _338  and  _339
REMARK  137  A    between atoms: _338  and  _341
REMARK  138  A    between atoms: _341  and  _342
REMARK  139  A    between atoms: _345  and  _347
REMARK  140  A    between atoms: _347  and  _348
REMARK  141  A    between atoms: _347  and  _350
REMARK  142  A    between atoms: _350  and  _351
REMARK  143  A    between atoms: _354  and  _356
REMARK  144  A    between atoms: _356  and  _357
REMARK  145  A    between atoms: _356  and  _359
REMARK  146  A    between atoms: _359  and  _360
REMARK  147  A    between atoms: _363  and  _365
REMARK  148  A    between atoms: _365  and  _366
REMARK  149  A    between atoms: _365  and  _368
REMARK  150  A    between atoms: _368  and  _369
REMARK  151  A    between atoms: _372  and  _374
REMARK  152  A    between atoms: _374  and  _375
REMARK  153  A    between atoms: _374  and  _377
REMARK  154  A    between atoms: _377  and  _378
REMARK  155  A    between atoms: _378  and  _379
REMARK  156  A    between atoms: _382  and  _384
REMARK  157  A    between atoms: _384  and  _385
REMARK  158  A    between atoms: _384  and  _387
REMARK  159  A    between atoms: _387  and  _388
REMARK  160  A    between atoms: _388  and  _389
REMARK  161  A    between atoms: _389  and  _390
REMARK  162  A    between atoms: _390  and  _391
REMARK  163  A    between atoms: _395  and  _397
REMARK  164  A    between atoms: _397  and  _398
REMARK  165  A    between atoms: _397  and  _400
REMARK  166  A    between atoms: _403  and  _405
REMARK  167  A    between atoms: _405  and  _406
REMARK  168  A    between atoms: _405  and  _408
REMARK  169  A    between atoms: _411  and  _413
REMARK  170  A    between atoms: _413  and  _414
REMARK  171  A    between atoms: _416  and  _418
REMARK  172  A    between atoms: _418  and  _419
REMARK  173  A    between atoms: _421  and  _423
REMARK  174  A    between atoms: _423  and  _424
REMARK  175  A    between atoms: _423  and  _426
REMARK  176  A    between atoms: _426  and  _427
REMARK  177  A    between atoms: _430  and  _432
REMARK  178  A    between atoms: _432  and  _433
REMARK  179  A    between atoms: _435  and  _437
REMARK  180  A    between atoms: _437  and  _438
REMARK  181  A    between atoms: _440  and  _442
REMARK  182  A    between atoms: _442  and  _443
REMARK  183  A    between atoms: _442  and  _445
REMARK  184  A    between atoms: _445  and  _446
REMARK  185  A    between atoms: _446  and  _447
REMARK  186  A    between atoms: _449  and  _451
REMARK  187  A    between atoms: _451  and  _452
REMARK  188  A    between atoms: _451  and  _454
REMARK  189  A    between atoms: _454  and  _455
REMARK  190  A    between atoms: _459  and  _460
REMARK  191  A    between atoms: _465  and  _467
REMARK  192  A    between atoms: _467  and  _468
REMARK  193  A    between atoms: _467  and  _470
REMARK  194  A    between atoms: _470  and  _471
REMARK  195  A    between atoms: _475  and  _476
REMARK  196  A    between atoms: _481  and  _483
REMARK  197  A    between atoms: _483  and  _484
REMARK  198  A    between atoms: _487  and  _489
REMARK  199  A    between atoms: _489  and  _490
REMARK  200  A    between atoms: _489  and  _492
REMARK  201  A    between atoms: _492  and  _493
REMARK  202  A    between atoms: _498  and  _500
REMARK  203  A    between atoms: _500  and  _501
REMARK  204  A    between atoms: _500  and  _503
REMARK  205  A    between atoms: _503  and  _504
REMARK  206  A    between atoms: _507  and  _509
REMARK  207  A    between atoms: _509  and  _510
REMARK  208  A    between atoms: _509  and  _512
REMARK  209  A    between atoms: _512  and  _513
REMARK  210  A    between atoms: _516  and  _518
REMARK  211  A    between atoms: _518  and  _519
REMARK  212  A    between atoms: _521  and  _523
REMARK  213  A    between atoms: _523  and  _524
REMARK  214  A    between atoms: _523  and  _526
REMARK  215  A    between atoms: _526  and  _527
REMARK  216  A    between atoms: _527  and  _528
REMARK  217  A    between atoms: _528  and  _529
REMARK  218  A    between atoms: _538  and  _540
REMARK  219  A    between atoms: _540  and  _541
REMARK  220  A    between atoms: _540  and  _543
REMARK  221  A    between atoms: _543  and  _544
REMARK                            x       y       z     vdW  Elec       q    Type
REMARK                         _______ _______ _______ _____ _____    ______ ____
ROOT
ATOM      1  O   HOH     1     -10.374  55.409  -8.901  0.00  0.00    +0.000 OA
ENDROOT
TORSDOF 0
REMARK  Name = ../refined-set-2016/4m8x/4m8x_pocket.pdb
REMARK  221 active torsions:
REMARK  status: ('A' for Active; 'I' for Inactive)
REMARK    1  A    between atoms: _1  and  _3
REMARK    2  A    between atoms: _3  and  _4
REMARK    3  A    between atoms: _3  and  _6
REMARK    4  A    between atoms: _6  and  _7
REMARK    5  A    between atoms: _7  and  _8
REMARK    6  A    between atoms: _8  and  _9
REMARK    7  A    between atoms: _18  and  _20
REMARK    8  A    between atoms: _20  and  _21
REMARK    9  A    between atoms: _20  and  _23
REMARK   10  A    between atoms: _23  and  _24
REMARK   11  A    between atoms: _27  and  _29
REMARK   12  A    between atoms: _29  and  _30
REMARK   13  A    between atoms: _29  and  _32
REMARK   14  A    between atoms: _32  and  _33
REMARK   15  A    between atoms: _36  and  _38
REMARK   16  A    between atoms: _38  and  _39
REMARK   17  A    between atoms: _38  and  _41
REMARK   18  A    between atoms: _41  and  _42
REMARK   19  A    between atoms: _45  and  _47
REMARK   20  A    between atoms: _47  and  _48
REMARK   21  A    between atoms: _47  and  _50
REMARK   22  A    between atoms: _50  and  _51
REMARK   23  A    between atoms: _54  and  _56
REMARK   24  A    between atoms: _56  and  _57
REMARK   25  A    between atoms: _59  and  _61
REMARK   26  A    between atoms: _61  and  _62
REMARK   27  A    between atoms: _65  and  _67
REMARK   28  A    between atoms: _67  and  _68
REMARK   29  A    between atoms: _67  and  _70
REMARK   30  A    between atoms: _70  and  _71
REMARK   31  A    between atoms: _74  and  _76
REMARK   32  A    between atoms: _76  and  _77
REMARK   33  A    between atoms: _76  and  _79
REMARK   34  A    between atoms: _79  and  _80
REMARK   35  A    between atoms: _83  and  _85
REMARK   36  A    between atoms: _85  and  _86
REMARK   37  A    between atoms: _85  and  _88
REMARK   38  A    between atoms: _88  and  _89
REMARK   39  A    between atoms: _92  and  _94
REMARK   40  A    between atoms: _94  and  _95
REMARK   41  A    between atoms: _94  and  _97
REMARK   42  A    between atoms: _97  and  _98
REMARK   43  A    between atoms: _101  and  _103
REMARK   44  A    between atoms: _103  and  _104
REMARK   45  A    between atoms: _103  and  _106
REMARK   46  A    between atoms: _109  and  _111
REMARK   47  A    between atoms: _111  and  _112
REMARK   48  A    between atoms: _111  and  _114
REMARK   49  A    between atoms: _117  and  _119
REMARK   50  A    between atoms: _119  and  _120
REMARK   51  A    between atoms: _122  and  _124
REMARK   52  A    between atoms: _124  and  _125
REMARK   53  A    between atoms: _127  and  _129
REMARK   54  A    between atoms: _129  and  _130
REMARK   55  A    between atoms: _129  and  _132
REMARK   56  A    between atoms: _132  and  _133
REMARK   57  A    between atoms: _136  and  _138
REMARK   58  A    between atoms: _138  and  _139
REMARK   59  A    between atoms: _141  and  _143
REMARK   60  A    between atoms: _143  and  _144
REMARK   61  A    between atoms: _146  and  _148
REMARK   62  A    between atoms: _148  and  _149
REMARK   63  A    between atoms: _148  and  _151
REMARK   64  A    between atoms: _151  and  _152
REMARK   65  A    between atoms: _158  and  _160
REMARK   66  A    between atoms: _160  and  _161
REMARK   67  A    between atoms: _160  and  _163
REMARK   68  A    between atoms: _163  and  _164
REMARK   69  A    between atoms: _164  and  _165
REMARK   70  A    between atoms: _167  and  _169
REMARK   71  A    between atoms: _169  and  _170
REMARK   72  A    between atoms: _169  and  _172
REMARK   73  A    between atoms: _172  and  _173
REMARK   74  A    between atoms: _176  and  _178
REMARK   75  A    between atoms: _178  and  _179
REMARK   76  A    between atoms: _178  and  _181
REMARK   77  A    between atoms: _181  and  _182
REMARK   78  A    between atoms: _186  and  _187
REMARK   79  A    between atoms: _192  and  _194
REMARK   80  A    between atoms: _194  and  _195
REMARK   81  A    between atoms: _198  and  _200
REMARK   82  A    between atoms: _200  and  _201
REMARK   83  A    between atoms: _200  and  _203
REMARK   84  A    between atoms: _203  and  _204
REMARK   85  A    between atoms: _209  and  _211
REMARK   86  A    between atoms: _211  and  _212
REMARK   87  A    between atoms: _211  and  _214
REMARK   88  A    between atoms: _214  and  _215
REMARK   89  A    between atoms: _218  and  _220
REMARK   90  A    between atoms: _220  and  _221
REMARK   91  A    between atoms: _220  and  _223
REMARK   92  A    between atoms: _223  and  _224
REMARK   93  A    between atoms: _227  and  _229
REMARK   94  A    between atoms: _229  and  _230
REMARK   95  A    between atoms: _232  and  _234
REMARK   96  A    between atoms: _234  and  _235
REMARK   97  A    between atoms: _234  and  _237
REMARK   98  A    between atoms: _237  and  _238
REMARK   99  A    between atoms: _238  and  _239
REMARK  100  A    between atoms: _239  and  _240
REMARK  101  A    between atoms: _249  and  _251
REMARK  102  A    between atoms: _251  and  _252
REMARK  103  A    between atoms: _251  and  _254
REMARK  104  A    between atoms: _254  and  _255
REMARK  105  A    between atoms: _260  and  _262
REMARK  106  A    between atoms: _262  and  _263
REMARK  107  A    between atoms: _262  and  _265
REMARK  108  A    between atoms: _265  and  _266
REMARK  109  A    between atoms: _266  and  _267
REMARK  110  A    between atoms: _267  and  _268
REMARK  111  A    between atoms: _277  and  _279
REMARK  112  A    between atoms: _279  and  _280
REMARK  113  A    between atoms: _279  and  _282
REMARK  114  A    between atoms: _282  and  _283
REMARK  115  A    between atoms: _289  and  _291
REMARK  116  A    between atoms: _291  and  _292
REMARK  117  A    between atoms: _291  and  _294
REMARK  118  A    between atoms: _294  and  _295
REMARK  119  A    between atoms: _298  and  _300
REMARK  120  A    between atoms: _300  and  _301
REMARK  121  A    between atoms: _300  and  _303
REMARK  122  A    between atoms: _303  and  _304
REMARK  123  A    between atoms: _307  and  _309
REMARK  124  A    between atoms: _309  and  _310
REMARK  125  A    between atoms: _309  and  _312
REMARK  126  A    between atoms: _312  and  _313
REMARK  127  A    between atoms: _316  and  _318
REMARK  128  A    between atoms: _318  and  _319
REMARK  129  A    between atoms: _318  and  _321
REMARK  130  A    between atoms: _321  and  _322
REMARK  131  A    between atoms: _325  and  _327
REMARK  132  A    between atoms: _327  and  _328
REMARK  133  A    between atoms: _330  and  _332
REMARK  134  A    between atoms: _332  and  _333
REMARK  135  A    between atoms: _336  and  _338
REMARK  136  A    between atoms: _338  and  _339
REMARK  137  A    between atoms: _338  and  _341
REMARK  138  A    between atoms: _341  and  _342
REMARK  139  A    between atoms: _345  and  _347
REMARK  140  A    between atoms: _347  and  _348
REMARK  141  A    between atoms: _347  and  _350
REMARK  142  A    between atoms: _350  and  _351
REMARK  143  A    between atoms: _354  and  _356
REMARK  144  A    between atoms: _356  and  _357
REMARK  145  A    between atoms: _356  and  _359
REMARK  146  A    between atoms: _359  and  _360
REMARK  147  A    between atoms: _363  and  _365
REMARK  148  A    between atoms: _365  and  _366
REMARK  149  A    between atoms: _365  and  _368
REMARK  150  A    between atoms: _368  and  _369
REMARK  151  A    between atoms: _372  and  _374
REMARK  152  A    between atoms: _374  and  _375
REMARK  153  A    between atoms: _374  and  _377
REMARK  154  A    between atoms: _377  and  _378
REMARK  155  A    between atoms: _378  and  _379
REMARK  156  A    between atoms: _382  and  _384
REMARK  157  A    between atoms: _384  and  _385
REMARK  158  A    between atoms: _384  and  _387
REMARK  159  A    between atoms: _387  and  _388
REMARK  160  A    between atoms: _388  and  _389
REMARK  161  A    between atoms: _389  and  _390
REMARK  162  A    between atoms: _390  and  _391
REMARK  163  A    between atoms: _395  and  _397
REMARK  164  A    between atoms: _397  and  _398
REMARK  165  A    between atoms: _397  and  _400
REMARK  166  A    between atoms: _403  and  _405
REMARK  167  A    between atoms: _405  and  _406
REMARK  168  A    between atoms: _405  and  _408
REMARK  169  A    between atoms: _411  and  _413
REMARK  170  A    between atoms: _413  and  _414
REMARK  171  A    between atoms: _416  and  _418
REMARK  172  A    between atoms: _418  and  _419
REMARK  173  A    between atoms: _421  and  _423
REMARK  174  A    between atoms: _423  and  _424
REMARK  175  A    between atoms: _423  and  _426
REMARK  176  A    between atoms: _426  and  _427
REMARK  177  A    between atoms: _430  and  _432
REMARK  178  A    between atoms: _432  and  _433
REMARK  179  A    between atoms: _435  and  _437
REMARK  180  A    between atoms: _437  and  _438
REMARK  181  A    between atoms: _440  and  _442
REMARK  182  A    between atoms: _442  and  _443
REMARK  183  A    between atoms: _442  and  _445
REMARK  184  A    between atoms: _445  and  _446
REMARK  185  A    between atoms: _446  and  _447
REMARK  186  A    between atoms: _449  and  _451
REMARK  187  A    between atoms: _451  and  _452
REMARK  188  A    between atoms: _451  and  _454
REMARK  189  A    between atoms: _454  and  _455
REMARK  190  A    between atoms: _459  and  _460
REMARK  191  A    between atoms: _465  and  _467
REMARK  192  A    between atoms: _467  and  _468
REMARK  193  A    between atoms: _467  and  _470
REMARK  194  A    between atoms: _470  and  _471
REMARK  195  A    between atoms: _475  and  _476
REMARK  196  A    between atoms: _481  and  _483
REMARK  197  A    between atoms: _483  and  _484
REMARK  198  A    between atoms: _487  and  _489
REMARK  199  A    between atoms: _489  and  _490
REMARK  200  A    between atoms: _489  and  _492
REMARK  201  A    between atoms: _492  and  _493
REMARK  202  A    between atoms: _498  and  _500
REMARK  203  A    between atoms: _500  and  _501
REMARK  204  A    between atoms: _500  and  _503
REMARK  205  A    between atoms: _503  and  _504
REMARK  206  A    between atoms: _507  and  _509
REMARK  207  A    between atoms: _509  and  _510
REMARK  208  A    between atoms: _509  and  _512
REMARK  209  A    between atoms: _512  and  _513
REMARK  210  A    between atoms: _516  and  _518
REMARK  211  A    between atoms: _518  and  _519
REMARK  212  A    between atoms: _521  and  _523
REMARK  213  A    between atoms: _523  and  _524
REMARK  214  A    between atoms: _523  and  _526
REMARK  215  A    between atoms: _526  and  _527
REMARK  216  A    between atoms: _527  and  _528
REMARK  217  A    between atoms: _528  and  _529
REMARK  218  A    between atoms: _538  and  _540
REMARK  219  A    between atoms: _540  and  _541
REMARK  220  A    between atoms: _540  and  _543
REMARK  221  A    between atoms: _543  and  _544
REMARK                            x       y       z     vdW  Elec       q    Type
REMARK                         _______ _______ _______ _____ _____    ______ ____
ROOT
ATOM      1  O   HOH     1     -13.825  63.344  10.948  0.00  0.00    +0.000 OA
ENDROOT
TORSDOF 0
REMARK  Name = ../refined-set-2016/4m8x/4m8x_pocket.pdb
REMARK  221 active torsions:
REMARK  status: ('A' for Active; 'I' for Inactive)
REMARK    1  A    between atoms: _1  and  _3
REMARK    2  A    between atoms: _3  and  _4
REMARK    3  A    between atoms: _3  and  _6
REMARK    4  A    between atoms: _6  and  _7
REMARK    5  A    between atoms: _7  and  _8
REMARK    6  A    between atoms: _8  and  _9
REMARK    7  A    between atoms: _18  and  _20
REMARK    8  A    between atoms: _20  and  _21
REMARK    9  A    between atoms: _20  and  _23
REMARK   10  A    between atoms: _23  and  _24
REMARK   11  A    between atoms: _27  and  _29
REMARK   12  A    between atoms: _29  and  _30
REMARK   13  A    between atoms: _29  and  _32
REMARK   14  A    between atoms: _32  and  _33
REMARK   15  A    between atoms: _36  and  _38
REMARK   16  A    between atoms: _38  and  _39
REMARK   17  A    between atoms: _38  and  _41
REMARK   18  A    between atoms: _41  and  _42
REMARK   19  A    between atoms: _45  and  _47
REMARK   20  A    between atoms: _47  and  _48
REMARK   21  A    between atoms: _47  and  _50
REMARK   22  A    between atoms: _50  and  _51
REMARK   23  A    between atoms: _54  and  _56
REMARK   24  A    between atoms: _56  and  _57
REMARK   25  A    between atoms: _59  and  _61
REMARK   26  A    between atoms: _61  and  _62
REMARK   27  A    between atoms: _65  and  _67
REMARK   28  A    between atoms: _67  and  _68
REMARK   29  A    between atoms: _67  and  _70
REMARK   30  A    between atoms: _70  and  _71
REMARK   31  A    between atoms: _74  and  _76
REMARK   32  A    between atoms: _76  and  _77
REMARK   33  A    between atoms: _76  and  _79
REMARK   34  A    between atoms: _79  and  _80
REMARK   35  A    between atoms: _83  and  _85
REMARK   36  A    between atoms: _85  and  _86
REMARK   37  A    between atoms: _85  and  _88
REMARK   38  A    between atoms: _88  and  _89
REMARK   39  A    between atoms: _92  and  _94
REMARK   40  A    between atoms: _94  and  _95
REMARK   41  A    between atoms: _94  and  _97
REMARK   42  A    between atoms: _97  and  _98
REMARK   43  A    between atoms: _101  and  _103
REMARK   44  A    between atoms: _103  and  _104
REMARK   45  A    between atoms: _103  and  _106
REMARK   46  A    between atoms: _109  and  _111
REMARK   47  A    between atoms: _111  and  _112
REMARK   48  A    between atoms: _111  and  _114
REMARK   49  A    between atoms: _117  and  _119
REMARK   50  A    between atoms: _119  and  _120
REMARK   51  A    between atoms: _122  and  _124
REMARK   52  A    between atoms: _124  and  _125
REMARK   53  A    between atoms: _127  and  _129
REMARK   54  A    between atoms: _129  and  _130
REMARK   55  A    between atoms: _129  and  _132
REMARK   56  A    between atoms: _132  and  _133
REMARK   57  A    between atoms: _136  and  _138
REMARK   58  A    between atoms: _138  and  _139
REMARK   59  A    between atoms: _141  and  _143
REMARK   60  A    between atoms: _143  and  _144
REMARK   61  A    between atoms: _146  and  _148
REMARK   62  A    between atoms: _148  and  _149
REMARK   63  A    between atoms: _148  and  _151
REMARK   64  A    between atoms: _151  and  _152
REMARK   65  A    between atoms: _158  and  _160
REMARK   66  A    between atoms: _160  and  _161
REMARK   67  A    between atoms: _160  and  _163
REMARK   68  A    between atoms: _163  and  _164
REMARK   69  A    between atoms: _164  and  _165
REMARK   70  A    between atoms: _167  and  _169
REMARK   71  A    between atoms: _169  and  _170
REMARK   72  A    between atoms: _169  and  _172
REMARK   73  A    between atoms: _172  and  _173
REMARK   74  A    between atoms: _176  and  _178
REMARK   75  A    between atoms: _178  and  _179
REMARK   76  A    between atoms: _178  and  _181
REMARK   77  A    between atoms: _181  and  _182
REMARK   78  A    between atoms: _186  and  _187
REMARK   79  A    between atoms: _192  and  _194
REMARK   80  A    between atoms: _194  and  _195
REMARK   81  A    between atoms: _198  and  _200
REMARK   82  A    between atoms: _200  and  _201
REMARK   83  A    between atoms: _200  and  _203
REMARK   84  A    between atoms: _203  and  _204
REMARK   85  A    between atoms: _209  and  _211
REMARK   86  A    between atoms: _211  and  _212
REMARK   87  A    between atoms: _211  and  _214
REMARK   88  A    between atoms: _214  and  _215
REMARK   89  A    between atoms: _218  and  _220
REMARK   90  A    between atoms: _220  and  _221
REMARK   91  A    between atoms: _220  and  _223
REMARK   92  A    between atoms: _223  and  _224
REMARK   93  A    between atoms: _227  and  _229
REMARK   94  A    between atoms: _229  and  _230
REMARK   95  A    between atoms: _232  and  _234
REMARK   96  A    between atoms: _234  and  _235
REMARK   97  A    between atoms: _234  and  _237
REMARK   98  A    between atoms: _237  and  _238
REMARK   99  A    between atoms: _238  and  _239
REMARK  100  A    between atoms: _239  and  _240
REMARK  101  A    between atoms: _249  and  _251
REMARK  102  A    between atoms: _251  and  _252
REMARK  103  A    between atoms: _251  and  _254
REMARK  104  A    between atoms: _254  and  _255
REMARK  105  A    between atoms: _260  and  _262
REMARK  106  A    between atoms: _262  and  _263
REMARK  107  A    between atoms: _262  and  _265
REMARK  108  A    between atoms: _265  and  _266
REMARK  109  A    between atoms: _266  and  _267
REMARK  110  A    between atoms: _267  and  _268
REMARK  111  A    between atoms: _277  and  _279
REMARK  112  A    between atoms: _279  and  _280
REMARK  113  A    between atoms: _279  and  _282
REMARK  114  A    between atoms: _282  and  _283
REMARK  115  A    between atoms: _289  and  _291
REMARK  116  A    between atoms: _291  and  _292
REMARK  117  A    between atoms: _291  and  _294
REMARK  118  A    between atoms: _294  and  _295
REMARK  119  A    between atoms: _298  and  _300
REMARK  120  A    between atoms: _300  and  _301
REMARK  121  A    between atoms: _300  and  _303
REMARK  122  A    between atoms: _303  and  _304
REMARK  123  A    between atoms: _307  and  _309
REMARK  124  A    between atoms: _309  and  _310
REMARK  125  A    between atoms: _309  and  _312
REMARK  126  A    between atoms: _312  and  _313
REMARK  127  A    between atoms: _316  and  _318
REMARK  128  A    between atoms: _318  and  _319
REMARK  129  A    between atoms: _318  and  _321
REMARK  130  A    between atoms: _321  and  _322
REMARK  131  A    between atoms: _325  and  _327
REMARK  132  A    between atoms: _327  and  _328
REMARK  133  A    between atoms: _330  and  _332
REMARK  134  A    between atoms: _332  and  _333
REMARK  135  A    between atoms: _336  and  _338
REMARK  136  A    between atoms: _338  and  _339
REMARK  137  A    between atoms: _338  and  _341
REMARK  138  A    between atoms: _341  and  _342
REMARK  139  A    between atoms: _345  and  _347
REMARK  140  A    between atoms: _347  and  _348
REMARK  141  A    between atoms: _347  and  _350
REMARK  142  A    between atoms: _350  and  _351
REMARK  143  A    between atoms: _354  and  _356
REMARK  144  A    between atoms: _356  and  _357
REMARK  145  A    between atoms: _356  and  _359
REMARK  146  A    between atoms: _359  and  _360
REMARK  147  A    between atoms: _363  and  _365
REMARK  148  A    between atoms: _365  and  _366
REMARK  149  A    between atoms: _365  and  _368
REMARK  150  A    between atoms: _368  and  _369
REMARK  151  A    between atoms: _372  and  _374
REMARK  152  A    between atoms: _374  and  _375
REMARK  153  A    between atoms: _374  and  _377
REMARK  154  A    between atoms: _377  and  _378
REMARK  155  A    between atoms: _378  and  _379
REMARK  156  A    between atoms: _382  and  _384
REMARK  157  A    between atoms: _384  and  _385
REMARK  158  A    between atoms: _384  and  _387
REMARK  159  A    between atoms: _387  and  _388
REMARK  160  A    between atoms: _388  and  _389
REMARK  161  A    between atoms: _389  and  _390
REMARK  162  A    between atoms: _390  and  _391
REMARK  163  A    between atoms: _395  and  _397
REMARK  164  A    between atoms: _397  and  _398
REMARK  165  A    between atoms: _397  and  _400
REMARK  166  A    between atoms: _403  and  _405
REMARK  167  A    between atoms: _405  and  _406
REMARK  168  A    between atoms: _405  and  _408
REMARK  169  A    between atoms: _411  and  _413
REMARK  170  A    between atoms: _413  and  _414
REMARK  171  A    between atoms: _416  and  _418
REMARK  172  A    between atoms: _418  and  _419
REMARK  173  A    between atoms: _421  and  _423
REMARK  174  A    between atoms: _423  and  _424
REMARK  175  A    between atoms: _423  and  _426
REMARK  176  A    between atoms: _426  and  _427
REMARK  177  A    between atoms: _430  and  _432
REMARK  178  A    between atoms: _432  and  _433
REMARK  179  A    between atoms: _435  and  _437
REMARK  180  A    between atoms: _437  and  _438
REMARK  181  A    between atoms: _440  and  _442
REMARK  182  A    between atoms: _442  and  _443
REMARK  183  A    between atoms: _442  and  _445
REMARK  184  A    between atoms: _445  and  _446
REMARK  185  A    between atoms: _446  and  _447
REMARK  186  A    between atoms: _449  and  _451
REMARK  187  A    between atoms: _451  and  _452
REMARK  188  A    between atoms: _451  and  _454
REMARK  189  A    between atoms: _454  and  _455
REMARK  190  A    between atoms: _459  and  _460
REMARK  191  A    between atoms: _465  and  _467
REMARK  192  A    between atoms: _467  and  _468
REMARK  193  A    between atoms: _467  and  _470
REMARK  194  A    between atoms: _470  and  _471
REMARK  195  A    between atoms: _475  and  _476
REMARK  196  A    between atoms: _481  and  _483
REMARK  197  A    between atoms: _483  and  _484
REMARK  198  A    between atoms: _487  and  _489
REMARK  199  A    between atoms: _489  and  _490
REMARK  200  A    between atoms: _489  and  _492
REMARK  201  A    between atoms: _492  and  _493
REMARK  202  A    between atoms: _498  and  _500
REMARK  203  A    between atoms: _500  and  _501
REMARK  204  A    between atoms: _500  and  _503
REMARK  205  A    between atoms: _503  and  _504
REMARK  206  A    between atoms: _507  and  _509
REMARK  207  A    between atoms: _509  and  _510
REMARK  208  A    between atoms: _509  and  _512
REMARK  209  A    between atoms: _512  and  _513
REMARK  210  A    between atoms: _516  and  _518
REMARK  211  A    between atoms: _518  and  _519
REMARK  212  A    between atoms: _521  and  _523
REMARK  213  A    between atoms: _523  and  _524
REMARK  214  A    between atoms: _523  and  _526
REMARK  215  A    between atoms: _526  and  _527
REMARK  216  A    between atoms: _527  and  _528
REMARK  217  A    between atoms: _528  and  _529
REMARK  218  A    between atoms: _538  and  _540
REMARK  219  A    between atoms: _540  and  _541
REMARK  220  A    between atoms: _540  and  _543
REMARK  221  A    between atoms: _543  and  _544
REMARK                            x       y       z     vdW  Elec       q    Type
REMARK                         _______ _______ _______ _____ _____    ______ ____
ROOT
ATOM      1  O   HOH     1      -7.979  61.277  14.767  0.00  0.00    +0.000 OA
ENDROOT
TORSDOF 0
REMARK  Name = ../refined-set-2016/4m8x/4m8x_pocket.pdb
REMARK  221 active torsions:
REMARK  status: ('A' for Active; 'I' for Inactive)
REMARK    1  A    between atoms: _1  and  _3
REMARK    2  A    between atoms: _3  and  _4
REMARK    3  A    between atoms: _3  and  _6
REMARK    4  A    between atoms: _6  and  _7
REMARK    5  A    between atoms: _7  and  _8
REMARK    6  A    between atoms: _8  and  _9
REMARK    7  A    between atoms: _18  and  _20
REMARK    8  A    between atoms: _20  and  _21
REMARK    9  A    between atoms: _20  and  _23
REMARK   10  A    between atoms: _23  and  _24
REMARK   11  A    between atoms: _27  and  _29
REMARK   12  A    between atoms: _29  and  _30
REMARK   13  A    between atoms: _29  and  _32
REMARK   14  A    between atoms: _32  and  _33
REMARK   15  A    between atoms: _36  and  _38
REMARK   16  A    between atoms: _38  and  _39
REMARK   17  A    between atoms: _38  and  _41
REMARK   18  A    between atoms: _41  and  _42
REMARK   19  A    between atoms: _45  and  _47
REMARK   20  A    between atoms: _47  and  _48
REMARK   21  A    between atoms: _47  and  _50
REMARK   22  A    between atoms: _50  and  _51
REMARK   23  A    between atoms: _54  and  _56
REMARK   24  A    between atoms: _56  and  _57
REMARK   25  A    between atoms: _59  and  _61
REMARK   26  A    between atoms: _61  and  _62
REMARK   27  A    between atoms: _65  and  _67
REMARK   28  A    between atoms: _67  and  _68
REMARK   29  A    between atoms: _67  and  _70
REMARK   30  A    between atoms: _70  and  _71
REMARK   31  A    between atoms: _74  and  _76
REMARK   32  A    between atoms: _76  and  _77
REMARK   33  A    between atoms: _76  and  _79
REMARK   34  A    between atoms: _79  and  _80
REMARK   35  A    between atoms: _83  and  _85
REMARK   36  A    between atoms: _85  and  _86
REMARK   37  A    between atoms: _85  and  _88
REMARK   38  A    between atoms: _88  and  _89
REMARK   39  A    between atoms: _92  and  _94
REMARK   40  A    between atoms: _94  and  _95
REMARK   41  A    between atoms: _94  and  _97
REMARK   42  A    between atoms: _97  and  _98
REMARK   43  A    between atoms: _101  and  _103
REMARK   44  A    between atoms: _103  and  _104
REMARK   45  A    between atoms: _103  and  _106
REMARK   46  A    between atoms: _109  and  _111
REMARK   47  A    between atoms: _111  and  _112
REMARK   48  A    between atoms: _111  and  _114
REMARK   49  A    between atoms: _117  and  _119
REMARK   50  A    between atoms: _119  and  _120
REMARK   51  A    between atoms: _122  and  _124
REMARK   52  A    between atoms: _124  and  _125
REMARK   53  A    between atoms: _127  and  _129
REMARK   54  A    between atoms: _129  and  _130
REMARK   55  A    between atoms: _129  and  _132
REMARK   56  A    between atoms: _132  and  _133
REMARK   57  A    between atoms: _136  and  _138
REMARK   58  A    between atoms: _138  and  _139
REMARK   59  A    between atoms: _141  and  _143
REMARK   60  A    between atoms: _143  and  _144
REMARK   61  A    between atoms: _146  and  _148
REMARK   62  A    between atoms: _148  and  _149
REMARK   63  A    between atoms: _148  and  _151
REMARK   64  A    between atoms: _151  and  _152
REMARK   65  A    between atoms: _158  and  _160
REMARK   66  A    between atoms: _160  and  _161
REMARK   67  A    between atoms: _160  and  _163
REMARK   68  A    between atoms: _163  and  _164
REMARK   69  A    between atoms: _164  and  _165
REMARK   70  A    between atoms: _167  and  _169
REMARK   71  A    between atoms: _169  and  _170
REMARK   72  A    between atoms: _169  and  _172
REMARK   73  A    between atoms: _172  and  _173
REMARK   74  A    between atoms: _176  and  _178
REMARK   75  A    between atoms: _178  and  _179
REMARK   76  A    between atoms: _178  and  _181
REMARK   77  A    between atoms: _181  and  _182
REMARK   78  A    between atoms: _186  and  _187
REMARK   79  A    between atoms: _192  and  _194
REMARK   80  A    between atoms: _194  and  _195
REMARK   81  A    between atoms: _198  and  _200
REMARK   82  A    between atoms: _200  and  _201
REMARK   83  A    between atoms: _200  and  _203
REMARK   84  A    between atoms: _203  and  _204
REMARK   85  A    between atoms: _209  and  _211
REMARK   86  A    between atoms: _211  and  _212
REMARK   87  A    between atoms: _211  and  _214
REMARK   88  A    between atoms: _214  and  _215
REMARK   89  A    between atoms: _218  and  _220
REMARK   90  A    between atoms: _220  and  _221
REMARK   91  A    between atoms: _220  and  _223
REMARK   92  A    between atoms: _223  and  _224
REMARK   93  A    between atoms: _227  and  _229
REMARK   94  A    between atoms: _229  and  _230
REMARK   95  A    between atoms: _232  and  _234
REMARK   96  A    between atoms: _234  and  _235
REMARK   97  A    between atoms: _234  and  _237
REMARK   98  A    between atoms: _237  and  _238
REMARK   99  A    between atoms: _238  and  _239
REMARK  100  A    between atoms: _239  and  _240
REMARK  101  A    between atoms: _249  and  _251
REMARK  102  A    between atoms: _251  and  _252
REMARK  103  A    between atoms: _251  and  _254
REMARK  104  A    between atoms: _254  and  _255
REMARK  105  A    between atoms: _260  and  _262
REMARK  106  A    between atoms: _262  and  _263
REMARK  107  A    between atoms: _262  and  _265
REMARK  108  A    between atoms: _265  and  _266
REMARK  109  A    between atoms: _266  and  _267
REMARK  110  A    between atoms: _267  and  _268
REMARK  111  A    between atoms: _277  and  _279
REMARK  112  A    between atoms: _279  and  _280
REMARK  113  A    between atoms: _279  and  _282
REMARK  114  A    between atoms: _282  and  _283
REMARK  115  A    between atoms: _289  and  _291
REMARK  116  A    between atoms: _291  and  _292
REMARK  117  A    between atoms: _291  and  _294
REMARK  118  A    between atoms: _294  and  _295
REMARK  119  A    between atoms: _298  and  _300
REMARK  120  A    between atoms: _300  and  _301
REMARK  121  A    between atoms: _300  and  _303
REMARK  122  A    between atoms: _303  and  _304
REMARK  123  A    between atoms: _307  and  _309
REMARK  124  A    between atoms: _309  and  _310
REMARK  125  A    between atoms: _309  and  _312
REMARK  126  A    between atoms: _312  and  _313
REMARK  127  A    between atoms: _316  and  _318
REMARK  128  A    between atoms: _318  and  _319
REMARK  129  A    between atoms: _318  and  _321
REMARK  130  A    between atoms: _321  and  _322
REMARK  131  A    between atoms: _325  and  _327
REMARK  132  A    between atoms: _327  and  _328
REMARK  133  A    between atoms: _330  and  _332
REMARK  134  A    between atoms: _332  and  _333
REMARK  135  A    between atoms: _336  and  _338
REMARK  136  A    between atoms: _338  and  _339
REMARK  137  A    between atoms: _338  and  _341
REMARK  138  A    between atoms: _341  and  _342
REMARK  139  A    between atoms: _345  and  _347
REMARK  140  A    between atoms: _347  and  _348
REMARK  141  A    between atoms: _347  and  _350
REMARK  142  A    between atoms: _350  and  _351
REMARK  143  A    between atoms: _354  and  _356
REMARK  144  A    between atoms: _356  and  _357
REMARK  145  A    between atoms: _356  and  _359
REMARK  146  A    between atoms: _359  and  _360
REMARK  147  A    between atoms: _363  and  _365
REMARK  148  A    between atoms: _365  and  _366
REMARK  149  A    between atoms: _365  and  _368
REMARK  150  A    between atoms: _368  and  _369
REMARK  151  A    between atoms: _372  and  _374
REMARK  152  A    between atoms: _374  and  _375
REMARK  153  A    between atoms: _374  and  _377
REMARK  154  A    between atoms: _377  and  _378
REMARK  155  A    between atoms: _378  and  _379
REMARK  156  A    between atoms: _382  and  _384
REMARK  157  A    between atoms: _384  and  _385
REMARK  158  A    between atoms: _384  and  _387
REMARK  159  A    between atoms: _387  and  _388
REMARK  160  A    between atoms: _388  and  _389
REMARK  161  A    between atoms: _389  and  _390
REMARK  162  A    between atoms: _390  and  _391
REMARK  163  A    between atoms: _395  and  _397
REMARK  164  A    between atoms: _397  and  _398
REMARK  165  A    between atoms: _397  and  _400
REMARK  166  A    between atoms: _403  and  _405
REMARK  167  A    between atoms: _405  and  _406
REMARK  168  A    between atoms: _405  and  _408
REMARK  169  A    between atoms: _411  and  _413
REMARK  170  A    between atoms: _413  and  _414
REMARK  171  A    between atoms: _416  and  _418
REMARK  172  A    between atoms: _418  and  _419
REMARK  173  A    between atoms: _421  and  _423
REMARK  174  A    between atoms: _423  and  _424
REMARK  175  A    between atoms: _423  and  _426
REMARK  176  A    between atoms: _426  and  _427
REMARK  177  A    between atoms: _430  and  _432
REMARK  178  A    between atoms: _432  and  _433
REMARK  179  A    between atoms: _435  and  _437
REMARK  180  A    between atoms: _437  and  _438
REMARK  181  A    between atoms: _440  and  _442
REMARK  182  A    between atoms: _442  and  _443
REMARK  183  A    between atoms: _442  and  _445
REMARK  184  A    between atoms: _445  and  _446
REMARK  185  A    between atoms: _446  and  _447
REMARK  186  A    between atoms: _449  and  _451
REMARK  187  A    between atoms: _451  and  _452
REMARK  188  A    between atoms: _451  and  _454
REMARK  189  A    between atoms: _454  and  _455
REMARK  190  A    between atoms: _459  and  _460
REMARK  191  A    between atoms: _465  and  _467
REMARK  192  A    between atoms: _467  and  _468
REMARK  193  A    between atoms: _467  and  _470
REMARK  194  A    between atoms: _470  and  _471
REMARK  195  A    between atoms: _475  and  _476
REMARK  196  A    between atoms: _481  and  _483
REMARK  197  A    between atoms: _483  and  _484
REMARK  198  A    between atoms: _487  and  _489
REMARK  199  A    between atoms: _489  and  _490
REMARK  200  A    between atoms: _489  and  _492
REMARK  201  A    between atoms: _492  and  _493
REMARK  202  A    between atoms: _498  and  _500
REMARK  203  A    between atoms: _500  and  _501
REMARK  204  A    between atoms: _500  and  _503
REMARK  205  A    between atoms: _503  and  _504
REMARK  206  A    between atoms: _507  and  _509
REMARK  207  A    between atoms: _509  and  _510
REMARK  208  A    between atoms: _509  and  _512
REMARK  209  A    between atoms: _512  and  _513
REMARK  210  A    between atoms: _516  and  _518
REMARK  211  A    between atoms: _518  and  _519
REMARK  212  A    between atoms: _521  and  _523
REMARK  213  A    between atoms: _523  and  _524
REMARK  214  A    between atoms: _523  and  _526
REMARK  215  A    between atoms: _526  and  _527
REMARK  216  A    between atoms: _527  and  _528
REMARK  217  A    between atoms: _528  and  _529
REMARK  218  A    between atoms: _538  and  _540
REMARK  219  A    between atoms: _540  and  _541
REMARK  220  A    between atoms: _540  and  _543
REMARK  221  A    between atoms: _543  and  _544
REMARK                            x       y       z     vdW  Elec       q    Type
REMARK                         _______ _______ _______ _____ _____    ______ ____
ROOT
ATOM      1  O   HOH     1     -10.426  51.468  17.045  0.00  0.00    +0.000 OA
ENDROOT
TORSDOF 0
REMARK  Name = ../refined-set-2016/4m8x/4m8x_pocket.pdb
REMARK  221 active torsions:
REMARK  status: ('A' for Active; 'I' for Inactive)
REMARK    1  A    between atoms: _1  and  _3
REMARK    2  A    between atoms: _3  and  _4
REMARK    3  A    between atoms: _3  and  _6
REMARK    4  A    between atoms: _6  and  _7
REMARK    5  A    between atoms: _7  and  _8
REMARK    6  A    between atoms: _8  and  _9
REMARK    7  A    between atoms: _18  and  _20
REMARK    8  A    between atoms: _20  and  _21
REMARK    9  A    between atoms: _20  and  _23
REMARK   10  A    between atoms: _23  and  _24
REMARK   11  A    between atoms: _27  and  _29
REMARK   12  A    between atoms: _29  and  _30
REMARK   13  A    between atoms: _29  and  _32
REMARK   14  A    between atoms: _32  and  _33
REMARK   15  A    between atoms: _36  and  _38
REMARK   16  A    between atoms: _38  and  _39
REMARK   17  A    between atoms: _38  and  _41
REMARK   18  A    between atoms: _41  and  _42
REMARK   19  A    between atoms: _45  and  _47
REMARK   20  A    between atoms: _47  and  _48
REMARK   21  A    between atoms: _47  and  _50
REMARK   22  A    between atoms: _50  and  _51
REMARK   23  A    between atoms: _54  and  _56
REMARK   24  A    between atoms: _56  and  _57
REMARK   25  A    between atoms: _59  and  _61
REMARK   26  A    between atoms: _61  and  _62
REMARK   27  A    between atoms: _65  and  _67
REMARK   28  A    between atoms: _67  and  _68
REMARK   29  A    between atoms: _67  and  _70
REMARK   30  A    between atoms: _70  and  _71
REMARK   31  A    between atoms: _74  and  _76
REMARK   32  A    between atoms: _76  and  _77
REMARK   33  A    between atoms: _76  and  _79
REMARK   34  A    between atoms: _79  and  _80
REMARK   35  A    between atoms: _83  and  _85
REMARK   36  A    between atoms: _85  and  _86
REMARK   37  A    between atoms: _85  and  _88
REMARK   38  A    between atoms: _88  and  _89
REMARK   39  A    between atoms: _92  and  _94
REMARK   40  A    between atoms: _94  and  _95
REMARK   41  A    between atoms: _94  and  _97
REMARK   42  A    between atoms: _97  and  _98
REMARK   43  A    between atoms: _101  and  _103
REMARK   44  A    between atoms: _103  and  _104
REMARK   45  A    between atoms: _103  and  _106
REMARK   46  A    between atoms: _109  and  _111
REMARK   47  A    between atoms: _111  and  _112
REMARK   48  A    between atoms: _111  and  _114
REMARK   49  A    between atoms: _117  and  _119
REMARK   50  A    between atoms: _119  and  _120
REMARK   51  A    between atoms: _122  and  _124
REMARK   52  A    between atoms: _124  and  _125
REMARK   53  A    between atoms: _127  and  _129
REMARK   54  A    between atoms: _129  and  _130
REMARK   55  A    between atoms: _129  and  _132
REMARK   56  A    between atoms: _132  and  _133
REMARK   57  A    between atoms: _136  and  _138
REMARK   58  A    between atoms: _138  and  _139
REMARK   59  A    between atoms: _141  and  _143
REMARK   60  A    between atoms: _143  and  _144
REMARK   61  A    between atoms: _146  and  _148
REMARK   62  A    between atoms: _148  and  _149
REMARK   63  A    between atoms: _148  and  _151
REMARK   64  A    between atoms: _151  and  _152
REMARK   65  A    between atoms: _158  and  _160
REMARK   66  A    between atoms: _160  and  _161
REMARK   67  A    between atoms: _160  and  _163
REMARK   68  A    between atoms: _163  and  _164
REMARK   69  A    between atoms: _164  and  _165
REMARK   70  A    between atoms: _167  and  _169
REMARK   71  A    between atoms: _169  and  _170
REMARK   72  A    between atoms: _169  and  _172
REMARK   73  A    between atoms: _172  and  _173
REMARK   74  A    between atoms: _176  and  _178
REMARK   75  A    between atoms: _178  and  _179
REMARK   76  A    between atoms: _178  and  _181
REMARK   77  A    between atoms: _181  and  _182
REMARK   78  A    between atoms: _186  and  _187
REMARK   79  A    between atoms: _192  and  _194
REMARK   80  A    between atoms: _194  and  _195
REMARK   81  A    between atoms: _198  and  _200
REMARK   82  A    between atoms: _200  and  _201
REMARK   83  A    between atoms: _200  and  _203
REMARK   84  A    between atoms: _203  and  _204
REMARK   85  A    between atoms: _209  and  _211
REMARK   86  A    between atoms: _211  and  _212
REMARK   87  A    between atoms: _211  and  _214
REMARK   88  A    between atoms: _214  and  _215
REMARK   89  A    between atoms: _218  and  _220
REMARK   90  A    between atoms: _220  and  _221
REMARK   91  A    between atoms: _220  and  _223
REMARK   92  A    between atoms: _223  and  _224
REMARK   93  A    between atoms: _227  and  _229
REMARK   94  A    between atoms: _229  and  _230
REMARK   95  A    between atoms: _232  and  _234
REMARK   96  A    between atoms: _234  and  _235
REMARK   97  A    between atoms: _234  and  _237
REMARK   98  A    between atoms: _237  and  _238
REMARK   99  A    between atoms: _238  and  _239
REMARK  100  A    between atoms: _239  and  _240
REMARK  101  A    between atoms: _249  and  _251
REMARK  102  A    between atoms: _251  and  _252
REMARK  103  A    between atoms: _251  and  _254
REMARK  104  A    between atoms: _254  and  _255
REMARK  105  A    between atoms: _260  and  _262
REMARK  106  A    between atoms: _262  and  _263
REMARK  107  A    between atoms: _262  and  _265
REMARK  108  A    between atoms: _265  and  _266
REMARK  109  A    between atoms: _266  and  _267
REMARK  110  A    between atoms: _267  and  _268
REMARK  111  A    between atoms: _277  and  _279
REMARK  112  A    between atoms: _279  and  _280
REMARK  113  A    between atoms: _279  and  _282
REMARK  114  A    between atoms: _282  and  _283
REMARK  115  A    between atoms: _289  and  _291
REMARK  116  A    between atoms: _291  and  _292
REMARK  117  A    between atoms: _291  and  _294
REMARK  118  A    between atoms: _294  and  _295
REMARK  119  A    between atoms: _298  and  _300
REMARK  120  A    between atoms: _300  and  _301
REMARK  121  A    between atoms: _300  and  _303
REMARK  122  A    between atoms: _303  and  _304
REMARK  123  A    between atoms: _307  and  _309
REMARK  124  A    between atoms: _309  and  _310
REMARK  125  A    between atoms: _309  and  _312
REMARK  126  A    between atoms: _312  and  _313
REMARK  127  A    between atoms: _316  and  _318
REMARK  128  A    between atoms: _318  and  _319
REMARK  129  A    between atoms: _318  and  _321
REMARK  130  A    between atoms: _321  and  _322
REMARK  131  A    between atoms: _325  and  _327
REMARK  132  A    between atoms: _327  and  _328
REMARK  133  A    between atoms: _330  and  _332
REMARK  134  A    between atoms: _332  and  _333
REMARK  135  A    between atoms: _336  and  _338
REMARK  136  A    between atoms: _338  and  _339
REMARK  137  A    between atoms: _338  and  _341
REMARK  138  A    between atoms: _341  and  _342
REMARK  139  A    between atoms: _345  and  _347
REMARK  140  A    between atoms: _347  and  _348
REMARK  141  A    between atoms: _347  and  _350
REMARK  142  A    between atoms: _350  and  _351
REMARK  143  A    between atoms: _354  and  _356
REMARK  144  A    between atoms: _356  and  _357
REMARK  145  A    between atoms: _356  and  _359
REMARK  146  A    between atoms: _359  and  _360
REMARK  147  A    between atoms: _363  and  _365
REMARK  148  A    between atoms: _365  and  _366
REMARK  149  A    between atoms: _365  and  _368
REMARK  150  A    between atoms: _368  and  _369
REMARK  151  A    between atoms: _372  and  _374
REMARK  152  A    between atoms: _374  and  _375
REMARK  153  A    between atoms: _374  and  _377
REMARK  154  A    between atoms: _377  and  _378
REMARK  155  A    between atoms: _378  and  _379
REMARK  156  A    between atoms: _382  and  _384
REMARK  157  A    between atoms: _384  and  _385
REMARK  158  A    between atoms: _384  and  _387
REMARK  159  A    between atoms: _387  and  _388
REMARK  160  A    between atoms: _388  and  _389
REMARK  161  A    between atoms: _389  and  _390
REMARK  162  A    between atoms: _390  and  _391
REMARK  163  A    between atoms: _395  and  _397
REMARK  164  A    between atoms: _397  and  _398
REMARK  165  A    between atoms: _397  and  _400
REMARK  166  A    between atoms: _403  and  _405
REMARK  167  A    between atoms: _405  and  _406
REMARK  168  A    between atoms: _405  and  _408
REMARK  169  A    between atoms: _411  and  _413
REMARK  170  A    between atoms: _413  and  _414
REMARK  171  A    between atoms: _416  and  _418
REMARK  172  A    between atoms: _418  and  _419
REMARK  173  A    between atoms: _421  and  _423
REMARK  174  A    between atoms: _423  and  _424
REMARK  175  A    between atoms: _423  and  _426
REMARK  176  A    between atoms: _426  and  _427
REMARK  177  A    between atoms: _430  and  _432
REMARK  178  A    between atoms: _432  and  _433
REMARK  179  A    between atoms: _435  and  _437
REMARK  180  A    between atoms: _437  and  _438
REMARK  181  A    between atoms: _440  and  _442
REMARK  182  A    between atoms: _442  and  _443
REMARK  183  A    between atoms: _442  and  _445
REMARK  184  A    between atoms: _445  and  _446
REMARK  185  A    between atoms: _446  and  _447
REMARK  186  A    between atoms: _449  and  _451
REMARK  187  A    between atoms: _451  and  _452
REMARK  188  A    between atoms: _451  and  _454
REMARK  189  A    between atoms: _454  and  _455
REMARK  190  A    between atoms: _459  and  _460
REMARK  191  A    between atoms: _465  and  _467
REMARK  192  A    between atoms: _467  and  _468
REMARK  193  A    between atoms: _467  and  _470
REMARK  194  A    between atoms: _470  and  _471
REMARK  195  A    between atoms: _475  and  _476
REMARK  196  A    between atoms: _481  and  _483
REMARK  197  A    between atoms: _483  and  _484
REMARK  198  A    between atoms: _487  and  _489
REMARK  199  A    between atoms: _489  and  _490
REMARK  200  A    between atoms: _489  and  _492
REMARK  201  A    between atoms: _492  and  _493
REMARK  202  A    between atoms: _498  and  _500
REMARK  203  A    between atoms: _500  and  _501
REMARK  204  A    between atoms: _500  and  _503
REMARK  205  A    between atoms: _503  and  _504
REMARK  206  A    between atoms: _507  and  _509
REMARK  207  A    between atoms: _509  and  _510
REMARK  208  A    between atoms: _509  and  _512
REMARK  209  A    between atoms: _512  and  _513
REMARK  210  A    between atoms: _516  and  _518
REMARK  211  A    between atoms: _518  and  _519
REMARK  212  A    between atoms: _521  and  _523
REMARK  213  A    between atoms: _523  and  _524
REMARK  214  A    between atoms: _523  and  _526
REMARK  215  A    between atoms: _526  and  _527
REMARK  216  A    between atoms: _527  and  _528
REMARK  217  A    between atoms: _528  and  _529
REMARK  218  A    between atoms: _538  and  _540
REMARK  219  A    between atoms: _540  and  _541
REMARK  220  A    between atoms: _540  and  _543
REMARK  221  A    between atoms: _543  and  _544
REMARK                            x       y       z     vdW  Elec       q    Type
REMARK                         _______ _______ _______ _____ _____    ______ ____
ROOT
ATOM      1  O   HOH     1     -12.243  54.507  18.899  0.00  0.00    +0.000 OA
ENDROOT
TORSDOF 0
REMARK  Name = ../refined-set-2016/4m8x/4m8x_pocket.pdb
REMARK  221 active torsions:
REMARK  status: ('A' for Active; 'I' for Inactive)
REMARK    1  A    between atoms: _1  and  _3
REMARK    2  A    between atoms: _3  and  _4
REMARK    3  A    between atoms: _3  and  _6
REMARK    4  A    between atoms: _6  and  _7
REMARK    5  A    between atoms: _7  and  _8
REMARK    6  A    between atoms: _8  and  _9
REMARK    7  A    between atoms: _18  and  _20
REMARK    8  A    between atoms: _20  and  _21
REMARK    9  A    between atoms: _20  and  _23
REMARK   10  A    between atoms: _23  and  _24
REMARK   11  A    between atoms: _27  and  _29
REMARK   12  A    between atoms: _29  and  _30
REMARK   13  A    between atoms: _29  and  _32
REMARK   14  A    between atoms: _32  and  _33
REMARK   15  A    between atoms: _36  and  _38
REMARK   16  A    between atoms: _38  and  _39
REMARK   17  A    between atoms: _38  and  _41
REMARK   18  A    between atoms: _41  and  _42
REMARK   19  A    between atoms: _45  and  _47
REMARK   20  A    between atoms: _47  and  _48
REMARK   21  A    between atoms: _47  and  _50
REMARK   22  A    between atoms: _50  and  _51
REMARK   23  A    between atoms: _54  and  _56
REMARK   24  A    between atoms: _56  and  _57
REMARK   25  A    between atoms: _59  and  _61
REMARK   26  A    between atoms: _61  and  _62
REMARK   27  A    between atoms: _65  and  _67
REMARK   28  A    between atoms: _67  and  _68
REMARK   29  A    between atoms: _67  and  _70
REMARK   30  A    between atoms: _70  and  _71
REMARK   31  A    between atoms: _74  and  _76
REMARK   32  A    between atoms: _76  and  _77
REMARK   33  A    between atoms: _76  and  _79
REMARK   34  A    between atoms: _79  and  _80
REMARK   35  A    between atoms: _83  and  _85
REMARK   36  A    between atoms: _85  and  _86
REMARK   37  A    between atoms: _85  and  _88
REMARK   38  A    between atoms: _88  and  _89
REMARK   39  A    between atoms: _92  and  _94
REMARK   40  A    between atoms: _94  and  _95
REMARK   41  A    between atoms: _94  and  _97
REMARK   42  A    between atoms: _97  and  _98
REMARK   43  A    between atoms: _101  and  _103
REMARK   44  A    between atoms: _103  and  _104
REMARK   45  A    between atoms: _103  and  _106
REMARK   46  A    between atoms: _109  and  _111
REMARK   47  A    between atoms: _111  and  _112
REMARK   48  A    between atoms: _111  and  _114
REMARK   49  A    between atoms: _117  and  _119
REMARK   50  A    between atoms: _119  and  _120
REMARK   51  A    between atoms: _122  and  _124
REMARK   52  A    between atoms: _124  and  _125
REMARK   53  A    between atoms: _127  and  _129
REMARK   54  A    between atoms: _129  and  _130
REMARK   55  A    between atoms: _129  and  _132
REMARK   56  A    between atoms: _132  and  _133
REMARK   57  A    between atoms: _136  and  _138
REMARK   58  A    between atoms: _138  and  _139
REMARK   59  A    between atoms: _141  and  _143
REMARK   60  A    between atoms: _143  and  _144
REMARK   61  A    between atoms: _146  and  _148
REMARK   62  A    between atoms: _148  and  _149
REMARK   63  A    between atoms: _148  and  _151
REMARK   64  A    between atoms: _151  and  _152
REMARK   65  A    between atoms: _158  and  _160
REMARK   66  A    between atoms: _160  and  _161
REMARK   67  A    between atoms: _160  and  _163
REMARK   68  A    between atoms: _163  and  _164
REMARK   69  A    between atoms: _164  and  _165
REMARK   70  A    between atoms: _167  and  _169
REMARK   71  A    between atoms: _169  and  _170
REMARK   72  A    between atoms: _169  and  _172
REMARK   73  A    between atoms: _172  and  _173
REMARK   74  A    between atoms: _176  and  _178
REMARK   75  A    between atoms: _178  and  _179
REMARK   76  A    between atoms: _178  and  _181
REMARK   77  A    between atoms: _181  and  _182
REMARK   78  A    between atoms: _186  and  _187
REMARK   79  A    between atoms: _192  and  _194
REMARK   80  A    between atoms: _194  and  _195
REMARK   81  A    between atoms: _198  and  _200
REMARK   82  A    between atoms: _200  and  _201
REMARK   83  A    between atoms: _200  and  _203
REMARK   84  A    between atoms: _203  and  _204
REMARK   85  A    between atoms: _209  and  _211
REMARK   86  A    between atoms: _211  and  _212
REMARK   87  A    between atoms: _211  and  _214
REMARK   88  A    between atoms: _214  and  _215
REMARK   89  A    between atoms: _218  and  _220
REMARK   90  A    between atoms: _220  and  _221
REMARK   91  A    between atoms: _220  and  _223
REMARK   92  A    between atoms: _223  and  _224
REMARK   93  A    between atoms: _227  and  _229
REMARK   94  A    between atoms: _229  and  _230
REMARK   95  A    between atoms: _232  and  _234
REMARK   96  A    between atoms: _234  and  _235
REMARK   97  A    between atoms: _234  and  _237
REMARK   98  A    between atoms: _237  and  _238
REMARK   99  A    between atoms: _238  and  _239
REMARK  100  A    between atoms: _239  and  _240
REMARK  101  A    between atoms: _249  and  _251
REMARK  102  A    between atoms: _251  and  _252
REMARK  103  A    between atoms: _251  and  _254
REMARK  104  A    between atoms: _254  and  _255
REMARK  105  A    between atoms: _260  and  _262
REMARK  106  A    between atoms: _262  and  _263
REMARK  107  A    between atoms: _262  and  _265
REMARK  108  A    between atoms: _265  and  _266
REMARK  109  A    between atoms: _266  and  _267
REMARK  110  A    between atoms: _267  and  _268
REMARK  111  A    between atoms: _277  and  _279
REMARK  112  A    between atoms: _279  and  _280
REMARK  113  A    between atoms: _279  and  _282
REMARK  114  A    between atoms: _282  and  _283
REMARK  115  A    between atoms: _289  and  _291
REMARK  116  A    between atoms: _291  and  _292
REMARK  117  A    between atoms: _291  and  _294
REMARK  118  A    between atoms: _294  and  _295
REMARK  119  A    between atoms: _298  and  _300
REMARK  120  A    between atoms: _300  and  _301
REMARK  121  A    between atoms: _300  and  _303
REMARK  122  A    between atoms: _303  and  _304
REMARK  123  A    between atoms: _307  and  _309
REMARK  124  A    between atoms: _309  and  _310
REMARK  125  A    between atoms: _309  and  _312
REMARK  126  A    between atoms: _312  and  _313
REMARK  127  A    between atoms: _316  and  _318
REMARK  128  A    between atoms: _318  and  _319
REMARK  129  A    between atoms: _318  and  _321
REMARK  130  A    between atoms: _321  and  _322
REMARK  131  A    between atoms: _325  and  _327
REMARK  132  A    between atoms: _327  and  _328
REMARK  133  A    between atoms: _330  and  _332
REMARK  134  A    between atoms: _332  and  _333
REMARK  135  A    between atoms: _336  and  _338
REMARK  136  A    between atoms: _338  and  _339
REMARK  137  A    between atoms: _338  and  _341
REMARK  138  A    between atoms: _341  and  _342
REMARK  139  A    between atoms: _345  and  _347
REMARK  140  A    between atoms: _347  and  _348
REMARK  141  A    between atoms: _347  and  _350
REMARK  142  A    between atoms: _350  and  _351
REMARK  143  A    between atoms: _354  and  _356
REMARK  144  A    between atoms: _356  and  _357
REMARK  145  A    between atoms: _356  and  _359
REMARK  146  A    between atoms: _359  and  _360
REMARK  147  A    between atoms: _363  and  _365
REMARK  148  A    between atoms: _365  and  _366
REMARK  149  A    between atoms: _365  and  _368
REMARK  150  A    between atoms: _368  and  _369
REMARK  151  A    between atoms: _372  and  _374
REMARK  152  A    between atoms: _374  and  _375
REMARK  153  A    between atoms: _374  and  _377
REMARK  154  A    between atoms: _377  and  _378
REMARK  155  A    between atoms: _378  and  _379
REMARK  156  A    between atoms: _382  and  _384
REMARK  157  A    between atoms: _384  and  _385
REMARK  158  A    between atoms: _384  and  _387
REMARK  159  A    between atoms: _387  and  _388
REMARK  160  A    between atoms: _388  and  _389
REMARK  161  A    between atoms: _389  and  _390
REMARK  162  A    between atoms: _390  and  _391
REMARK  163  A    between atoms: _395  and  _397
REMARK  164  A    between atoms: _397  and  _398
REMARK  165  A    between atoms: _397  and  _400
REMARK  166  A    between atoms: _403  and  _405
REMARK  167  A    between atoms: _405  and  _406
REMARK  168  A    between atoms: _405  and  _408
REMARK  169  A    between atoms: _411  and  _413
REMARK  170  A    between atoms: _413  and  _414
REMARK  171  A    between atoms: _416  and  _418
REMARK  172  A    between atoms: _418  and  _419
REMARK  173  A    between atoms: _421  and  _423
REMARK  174  A    between atoms: _423  and  _424
REMARK  175  A    between atoms: _423  and  _426
REMARK  176  A    between atoms: _426  and  _427
REMARK  177  A    between atoms: _430  and  _432
REMARK  178  A    between atoms: _432  and  _433
REMARK  179  A    between atoms: _435  and  _437
REMARK  180  A    between atoms: _437  and  _438
REMARK  181  A    between atoms: _440  and  _442
REMARK  182  A    between atoms: _442  and  _443
REMARK  183  A    between atoms: _442  and  _445
REMARK  184  A    between atoms: _445  and  _446
REMARK  185  A    between atoms: _446  and  _447
REMARK  186  A    between atoms: _449  and  _451
REMARK  187  A    between atoms: _451  and  _452
REMARK  188  A    between atoms: _451  and  _454
REMARK  189  A    between atoms: _454  and  _455
REMARK  190  A    between atoms: _459  and  _460
REMARK  191  A    between atoms: _465  and  _467
REMARK  192  A    between atoms: _467  and  _468
REMARK  193  A    between atoms: _467  and  _470
REMARK  194  A    between atoms: _470  and  _471
REMARK  195  A    between atoms: _475  and  _476
REMARK  196  A    between atoms: _481  and  _483
REMARK  197  A    between atoms: _483  and  _484
REMARK  198  A    between atoms: _487  and  _489
REMARK  199  A    between atoms: _489  and  _490
REMARK  200  A    between atoms: _489  and  _492
REMARK  201  A    between atoms: _492  and  _493
REMARK  202  A    between atoms: _498  and  _500
REMARK  203  A    between atoms: _500  and  _501
REMARK  204  A    between atoms: _500  and  _503
REMARK  205  A    between atoms: _503  and  _504
REMARK  206  A    between atoms: _507  and  _509
REMARK  207  A    between atoms: _509  and  _510
REMARK  208  A    between atoms: _509  and  _512
REMARK  209  A    between atoms: _512  and  _513
REMARK  210  A    between atoms: _516  and  _518
REMARK  211  A    between atoms: _518  and  _519
REMARK  212  A    between atoms: _521  and  _523
REMARK  213  A    between atoms: _523  and  _524
REMARK  214  A    between atoms: _523  and  _526
REMARK  215  A    between atoms: _526  and  _527
REMARK  216  A    between atoms: _527  and  _528
REMARK  217  A    between atoms: _528  and  _529
REMARK  218  A    between atoms: _538  and  _540
REMARK  219  A    between atoms: _540  and  _541
REMARK  220  A    between atoms: _540  and  _543
REMARK  221  A    between atoms: _543  and  _544
REMARK                            x       y       z     vdW  Elec       q    Type
REMARK                         _______ _______ _______ _____ _____    ______ ____
ROOT
ATOM      1  O   HOH     1     -10.561  40.827   5.994  0.00  0.00    +0.000 OA
ENDROOT
TORSDOF 0
REMARK  Name = ../refined-set-2016/4m8x/4m8x_pocket.pdb
REMARK  221 active torsions:
REMARK  status: ('A' for Active; 'I' for Inactive)
REMARK    1  A    between atoms: _1  and  _3
REMARK    2  A    between atoms: _3  and  _4
REMARK    3  A    between atoms: _3  and  _6
REMARK    4  A    between atoms: _6  and  _7
REMARK    5  A    between atoms: _7  and  _8
REMARK    6  A    between atoms: _8  and  _9
REMARK    7  A    between atoms: _18  and  _20
REMARK    8  A    between atoms: _20  and  _21
REMARK    9  A    between atoms: _20  and  _23
REMARK   10  A    between atoms: _23  and  _24
REMARK   11  A    between atoms: _27  and  _29
REMARK   12  A    between atoms: _29  and  _30
REMARK   13  A    between atoms: _29  and  _32
REMARK   14  A    between atoms: _32  and  _33
REMARK   15  A    between atoms: _36  and  _38
REMARK   16  A    between atoms: _38  and  _39
REMARK   17  A    between atoms: _38  and  _41
REMARK   18  A    between atoms: _41  and  _42
REMARK   19  A    between atoms: _45  and  _47
REMARK   20  A    between atoms: _47  and  _48
REMARK   21  A    between atoms: _47  and  _50
REMARK   22  A    between atoms: _50  and  _51
REMARK   23  A    between atoms: _54  and  _56
REMARK   24  A    between atoms: _56  and  _57
REMARK   25  A    between atoms: _59  and  _61
REMARK   26  A    between atoms: _61  and  _62
REMARK   27  A    between atoms: _65  and  _67
REMARK   28  A    between atoms: _67  and  _68
REMARK   29  A    between atoms: _67  and  _70
REMARK   30  A    between atoms: _70  and  _71
REMARK   31  A    between atoms: _74  and  _76
REMARK   32  A    between atoms: _76  and  _77
REMARK   33  A    between atoms: _76  and  _79
REMARK   34  A    between atoms: _79  and  _80
REMARK   35  A    between atoms: _83  and  _85
REMARK   36  A    between atoms: _85  and  _86
REMARK   37  A    between atoms: _85  and  _88
REMARK   38  A    between atoms: _88  and  _89
REMARK   39  A    between atoms: _92  and  _94
REMARK   40  A    between atoms: _94  and  _95
REMARK   41  A    between atoms: _94  and  _97
REMARK   42  A    between atoms: _97  and  _98
REMARK   43  A    between atoms: _101  and  _103
REMARK   44  A    between atoms: _103  and  _104
REMARK   45  A    between atoms: _103  and  _106
REMARK   46  A    between atoms: _109  and  _111
REMARK   47  A    between atoms: _111  and  _112
REMARK   48  A    between atoms: _111  and  _114
REMARK   49  A    between atoms: _117  and  _119
REMARK   50  A    between atoms: _119  and  _120
REMARK   51  A    between atoms: _122  and  _124
REMARK   52  A    between atoms: _124  and  _125
REMARK   53  A    between atoms: _127  and  _129
REMARK   54  A    between atoms: _129  and  _130
REMARK   55  A    between atoms: _129  and  _132
REMARK   56  A    between atoms: _132  and  _133
REMARK   57  A    between atoms: _136  and  _138
REMARK   58  A    between atoms: _138  and  _139
REMARK   59  A    between atoms: _141  and  _143
REMARK   60  A    between atoms: _143  and  _144
REMARK   61  A    between atoms: _146  and  _148
REMARK   62  A    between atoms: _148  and  _149
REMARK   63  A    between atoms: _148  and  _151
REMARK   64  A    between atoms: _151  and  _152
REMARK   65  A    between atoms: _158  and  _160
REMARK   66  A    between atoms: _160  and  _161
REMARK   67  A    between atoms: _160  and  _163
REMARK   68  A    between atoms: _163  and  _164
REMARK   69  A    between atoms: _164  and  _165
REMARK   70  A    between atoms: _167  and  _169
REMARK   71  A    between atoms: _169  and  _170
REMARK   72  A    between atoms: _169  and  _172
REMARK   73  A    between atoms: _172  and  _173
REMARK   74  A    between atoms: _176  and  _178
REMARK   75  A    between atoms: _178  and  _179
REMARK   76  A    between atoms: _178  and  _181
REMARK   77  A    between atoms: _181  and  _182
REMARK   78  A    between atoms: _186  and  _187
REMARK   79  A    between atoms: _192  and  _194
REMARK   80  A    between atoms: _194  and  _195
REMARK   81  A    between atoms: _198  and  _200
REMARK   82  A    between atoms: _200  and  _201
REMARK   83  A    between atoms: _200  and  _203
REMARK   84  A    between atoms: _203  and  _204
REMARK   85  A    between atoms: _209  and  _211
REMARK   86  A    between atoms: _211  and  _212
REMARK   87  A    between atoms: _211  and  _214
REMARK   88  A    between atoms: _214  and  _215
REMARK   89  A    between atoms: _218  and  _220
REMARK   90  A    between atoms: _220  and  _221
REMARK   91  A    between atoms: _220  and  _223
REMARK   92  A    between atoms: _223  and  _224
REMARK   93  A    between atoms: _227  and  _229
REMARK   94  A    between atoms: _229  and  _230
REMARK   95  A    between atoms: _232  and  _234
REMARK   96  A    between atoms: _234  and  _235
REMARK   97  A    between atoms: _234  and  _237
REMARK   98  A    between atoms: _237  and  _238
REMARK   99  A    between atoms: _238  and  _239
REMARK  100  A    between atoms: _239  and  _240
REMARK  101  A    between atoms: _249  and  _251
REMARK  102  A    between atoms: _251  and  _252
REMARK  103  A    between atoms: _251  and  _254
REMARK  104  A    between atoms: _254  and  _255
REMARK  105  A    between atoms: _260  and  _262
REMARK  106  A    between atoms: _262  and  _263
REMARK  107  A    between atoms: _262  and  _265
REMARK  108  A    between atoms: _265  and  _266
REMARK  109  A    between atoms: _266  and  _267
REMARK  110  A    between atoms: _267  and  _268
REMARK  111  A    between atoms: _277  and  _279
REMARK  112  A    between atoms: _279  and  _280
REMARK  113  A    between atoms: _279  and  _282
REMARK  114  A    between atoms: _282  and  _283
REMARK  115  A    between atoms: _289  and  _291
REMARK  116  A    between atoms: _291  and  _292
REMARK  117  A    between atoms: _291  and  _294
REMARK  118  A    between atoms: _294  and  _295
REMARK  119  A    between atoms: _298  and  _300
REMARK  120  A    between atoms: _300  and  _301
REMARK  121  A    between atoms: _300  and  _303
REMARK  122  A    between atoms: _303  and  _304
REMARK  123  A    between atoms: _307  and  _309
REMARK  124  A    between atoms: _309  and  _310
REMARK  125  A    between atoms: _309  and  _312
REMARK  126  A    between atoms: _312  and  _313
REMARK  127  A    between atoms: _316  and  _318
REMARK  128  A    between atoms: _318  and  _319
REMARK  129  A    between atoms: _318  and  _321
REMARK  130  A    between atoms: _321  and  _322
REMARK  131  A    between atoms: _325  and  _327
REMARK  132  A    between atoms: _327  and  _328
REMARK  133  A    between atoms: _330  and  _332
REMARK  134  A    between atoms: _332  and  _333
REMARK  135  A    between atoms: _336  and  _338
REMARK  136  A    between atoms: _338  and  _339
REMARK  137  A    between atoms: _338  and  _341
REMARK  138  A    between atoms: _341  and  _342
REMARK  139  A    between atoms: _345  and  _347
REMARK  140  A    between atoms: _347  and  _348
REMARK  141  A    between atoms: _347  and  _350
REMARK  142  A    between atoms: _350  and  _351
REMARK  143  A    between atoms: _354  and  _356
REMARK  144  A    between atoms: _356  and  _357
REMARK  145  A    between atoms: _356  and  _359
REMARK  146  A    between atoms: _359  and  _360
REMARK  147  A    between atoms: _363  and  _365
REMARK  148  A    between atoms: _365  and  _366
REMARK  149  A    between atoms: _365  and  _368
REMARK  150  A    between atoms: _368  and  _369
REMARK  151  A    between atoms: _372  and  _374
REMARK  152  A    between atoms: _374  and  _375
REMARK  153  A    between atoms: _374  and  _377
REMARK  154  A    between atoms: _377  and  _378
REMARK  155  A    between atoms: _378  and  _379
REMARK  156  A    between atoms: _382  and  _384
REMARK  157  A    between atoms: _384  and  _385
REMARK  158  A    between atoms: _384  and  _387
REMARK  159  A    between atoms: _387  and  _388
REMARK  160  A    between atoms: _388  and  _389
REMARK  161  A    between atoms: _389  and  _390
REMARK  162  A    between atoms: _390  and  _391
REMARK  163  A    between atoms: _395  and  _397
REMARK  164  A    between atoms: _397  and  _398
REMARK  165  A    between atoms: _397  and  _400
REMARK  166  A    between atoms: _403  and  _405
REMARK  167  A    between atoms: _405  and  _406
REMARK  168  A    between atoms: _405  and  _408
REMARK  169  A    between atoms: _411  and  _413
REMARK  170  A    between atoms: _413  and  _414
REMARK  171  A    between atoms: _416  and  _418
REMARK  172  A    between atoms: _418  and  _419
REMARK  173  A    between atoms: _421  and  _423
REMARK  174  A    between atoms: _423  and  _424
REMARK  175  A    between atoms: _423  and  _426
REMARK  176  A    between atoms: _426  and  _427
REMARK  177  A    between atoms: _430  and  _432
REMARK  178  A    between atoms: _432  and  _433
REMARK  179  A    between atoms: _435  and  _437
REMARK  180  A    between atoms: _437  and  _438
REMARK  181  A    between atoms: _440  and  _442
REMARK  182  A    between atoms: _442  and  _443
REMARK  183  A    between atoms: _442  and  _445
REMARK  184  A    between atoms: _445  and  _446
REMARK  185  A    between atoms: _446  and  _447
REMARK  186  A    between atoms: _449  and  _451
REMARK  187  A    between atoms: _451  and  _452
REMARK  188  A    between atoms: _451  and  _454
REMARK  189  A    between atoms: _454  and  _455
REMARK  190  A    between atoms: _459  and  _460
REMARK  191  A    between atoms: _465  and  _467
REMARK  192  A    between atoms: _467  and  _468
REMARK  193  A    between atoms: _467  and  _470
REMARK  194  A    between atoms: _470  and  _471
REMARK  195  A    between atoms: _475  and  _476
REMARK  196  A    between atoms: _481  and  _483
REMARK  197  A    between atoms: _483  and  _484
REMARK  198  A    between atoms: _487  and  _489
REMARK  199  A    between atoms: _489  and  _490
REMARK  200  A    between atoms: _489  and  _492
REMARK  201  A    between atoms: _492  and  _493
REMARK  202  A    between atoms: _498  and  _500
REMARK  203  A    between atoms: _500  and  _501
REMARK  204  A    between atoms: _500  and  _503
REMARK  205  A    between atoms: _503  and  _504
REMARK  206  A    between atoms: _507  and  _509
REMARK  207  A    between atoms: _509  and  _510
REMARK  208  A    between atoms: _509  and  _512
REMARK  209  A    between atoms: _512  and  _513
REMARK  210  A    between atoms: _516  and  _518
REMARK  211  A    between atoms: _518  and  _519
REMARK  212  A    between atoms: _521  and  _523
REMARK  213  A    between atoms: _523  and  _524
REMARK  214  A    between atoms: _523  and  _526
REMARK  215  A    between atoms: _526  and  _527
REMARK  216  A    between atoms: _527  and  _528
REMARK  217  A    between atoms: _528  and  _529
REMARK  218  A    between atoms: _538  and  _540
REMARK  219  A    between atoms: _540  and  _541
REMARK  220  A    between atoms: _540  and  _543
REMARK  221  A    between atoms: _543  and  _544
REMARK                            x       y       z     vdW  Elec       q    Type
REMARK                         _______ _______ _______ _____ _____    ______ ____
ROOT
ATOM      1  O   HOH     1     -15.775  53.446   4.081  0.00  0.00    +0.000 OA
ENDROOT
TORSDOF 0
REMARK  Name = ../refined-set-2016/4m8x/4m8x_pocket.pdb
REMARK  221 active torsions:
REMARK  status: ('A' for Active; 'I' for Inactive)
REMARK    1  A    between atoms: _1  and  _3
REMARK    2  A    between atoms: _3  and  _4
REMARK    3  A    between atoms: _3  and  _6
REMARK    4  A    between atoms: _6  and  _7
REMARK    5  A    between atoms: _7  and  _8
REMARK    6  A    between atoms: _8  and  _9
REMARK    7  A    between atoms: _18  and  _20
REMARK    8  A    between atoms: _20  and  _21
REMARK    9  A    between atoms: _20  and  _23
REMARK   10  A    between atoms: _23  and  _24
REMARK   11  A    between atoms: _27  and  _29
REMARK   12  A    between atoms: _29  and  _30
REMARK   13  A    between atoms: _29  and  _32
REMARK   14  A    between atoms: _32  and  _33
REMARK   15  A    between atoms: _36  and  _38
REMARK   16  A    between atoms: _38  and  _39
REMARK   17  A    between atoms: _38  and  _41
REMARK   18  A    between atoms: _41  and  _42
REMARK   19  A    between atoms: _45  and  _47
REMARK   20  A    between atoms: _47  and  _48
REMARK   21  A    between atoms: _47  and  _50
REMARK   22  A    between atoms: _50  and  _51
REMARK   23  A    between atoms: _54  and  _56
REMARK   24  A    between atoms: _56  and  _57
REMARK   25  A    between atoms: _59  and  _61
REMARK   26  A    between atoms: _61  and  _62
REMARK   27  A    between atoms: _65  and  _67
REMARK   28  A    between atoms: _67  and  _68
REMARK   29  A    between atoms: _67  and  _70
REMARK   30  A    between atoms: _70  and  _71
REMARK   31  A    between atoms: _74  and  _76
REMARK   32  A    between atoms: _76  and  _77
REMARK   33  A    between atoms: _76  and  _79
REMARK   34  A    between atoms: _79  and  _80
REMARK   35  A    between atoms: _83  and  _85
REMARK   36  A    between atoms: _85  and  _86
REMARK   37  A    between atoms: _85  and  _88
REMARK   38  A    between atoms: _88  and  _89
REMARK   39  A    between atoms: _92  and  _94
REMARK   40  A    between atoms: _94  and  _95
REMARK   41  A    between atoms: _94  and  _97
REMARK   42  A    between atoms: _97  and  _98
REMARK   43  A    between atoms: _101  and  _103
REMARK   44  A    between atoms: _103  and  _104
REMARK   45  A    between atoms: _103  and  _106
REMARK   46  A    between atoms: _109  and  _111
REMARK   47  A    between atoms: _111  and  _112
REMARK   48  A    between atoms: _111  and  _114
REMARK   49  A    between atoms: _117  and  _119
REMARK   50  A    between atoms: _119  and  _120
REMARK   51  A    between atoms: _122  and  _124
REMARK   52  A    between atoms: _124  and  _125
REMARK   53  A    between atoms: _127  and  _129
REMARK   54  A    between atoms: _129  and  _130
REMARK   55  A    between atoms: _129  and  _132
REMARK   56  A    between atoms: _132  and  _133
REMARK   57  A    between atoms: _136  and  _138
REMARK   58  A    between atoms: _138  and  _139
REMARK   59  A    between atoms: _141  and  _143
REMARK   60  A    between atoms: _143  and  _144
REMARK   61  A    between atoms: _146  and  _148
REMARK   62  A    between atoms: _148  and  _149
REMARK   63  A    between atoms: _148  and  _151
REMARK   64  A    between atoms: _151  and  _152
REMARK   65  A    between atoms: _158  and  _160
REMARK   66  A    between atoms: _160  and  _161
REMARK   67  A    between atoms: _160  and  _163
REMARK   68  A    between atoms: _163  and  _164
REMARK   69  A    between atoms: _164  and  _165
REMARK   70  A    between atoms: _167  and  _169
REMARK   71  A    between atoms: _169  and  _170
REMARK   72  A    between atoms: _169  and  _172
REMARK   73  A    between atoms: _172  and  _173
REMARK   74  A    between atoms: _176  and  _178
REMARK   75  A    between atoms: _178  and  _179
REMARK   76  A    between atoms: _178  and  _181
REMARK   77  A    between atoms: _181  and  _182
REMARK   78  A    between atoms: _186  and  _187
REMARK   79  A    between atoms: _192  and  _194
REMARK   80  A    between atoms: _194  and  _195
REMARK   81  A    between atoms: _198  and  _200
REMARK   82  A    between atoms: _200  and  _201
REMARK   83  A    between atoms: _200  and  _203
REMARK   84  A    between atoms: _203  and  _204
REMARK   85  A    between atoms: _209  and  _211
REMARK   86  A    between atoms: _211  and  _212
REMARK   87  A    between atoms: _211  and  _214
REMARK   88  A    between atoms: _214  and  _215
REMARK   89  A    between atoms: _218  and  _220
REMARK   90  A    between atoms: _220  and  _221
REMARK   91  A    between atoms: _220  and  _223
REMARK   92  A    between atoms: _223  and  _224
REMARK   93  A    between atoms: _227  and  _229
REMARK   94  A    between atoms: _229  and  _230
REMARK   95  A    between atoms: _232  and  _234
REMARK   96  A    between atoms: _234  and  _235
REMARK   97  A    between atoms: _234  and  _237
REMARK   98  A    between atoms: _237  and  _238
REMARK   99  A    between atoms: _238  and  _239
REMARK  100  A    between atoms: _239  and  _240
REMARK  101  A    between atoms: _249  and  _251
REMARK  102  A    between atoms: _251  and  _252
REMARK  103  A    between atoms: _251  and  _254
REMARK  104  A    between atoms: _254  and  _255
REMARK  105  A    between atoms: _260  and  _262
REMARK  106  A    between atoms: _262  and  _263
REMARK  107  A    between atoms: _262  and  _265
REMARK  108  A    between atoms: _265  and  _266
REMARK  109  A    between atoms: _266  and  _267
REMARK  110  A    between atoms: _267  and  _268
REMARK  111  A    between atoms: _277  and  _279
REMARK  112  A    between atoms: _279  and  _280
REMARK  113  A    between atoms: _279  and  _282
REMARK  114  A    between atoms: _282  and  _283
REMARK  115  A    between atoms: _289  and  _291
REMARK  116  A    between atoms: _291  and  _292
REMARK  117  A    between atoms: _291  and  _294
REMARK  118  A    between atoms: _294  and  _295
REMARK  119  A    between atoms: _298  and  _300
REMARK  120  A    between atoms: _300  and  _301
REMARK  121  A    between atoms: _300  and  _303
REMARK  122  A    between atoms: _303  and  _304
REMARK  123  A    between atoms: _307  and  _309
REMARK  124  A    between atoms: _309  and  _310
REMARK  125  A    between atoms: _309  and  _312
REMARK  126  A    between atoms: _312  and  _313
REMARK  127  A    between atoms: _316  and  _318
REMARK  128  A    between atoms: _318  and  _319
REMARK  129  A    between atoms: _318  and  _321
REMARK  130  A    between atoms: _321  and  _322
REMARK  131  A    between atoms: _325  and  _327
REMARK  132  A    between atoms: _327  and  _328
REMARK  133  A    between atoms: _330  and  _332
REMARK  134  A    between atoms: _332  and  _333
REMARK  135  A    between atoms: _336  and  _338
REMARK  136  A    between atoms: _338  and  _339
REMARK  137  A    between atoms: _338  and  _341
REMARK  138  A    between atoms: _341  and  _342
REMARK  139  A    between atoms: _345  and  _347
REMARK  140  A    between atoms: _347  and  _348
REMARK  141  A    between atoms: _347  and  _350
REMARK  142  A    between atoms: _350  and  _351
REMARK  143  A    between atoms: _354  and  _356
REMARK  144  A    between atoms: _356  and  _357
REMARK  145  A    between atoms: _356  and  _359
REMARK  146  A    between atoms: _359  and  _360
REMARK  147  A    between atoms: _363  and  _365
REMARK  148  A    between atoms: _365  and  _366
REMARK  149  A    between atoms: _365  and  _368
REMARK  150  A    between atoms: _368  and  _369
REMARK  151  A    between atoms: _372  and  _374
REMARK  152  A    between atoms: _374  and  _375
REMARK  153  A    between atoms: _374  and  _377
REMARK  154  A    between atoms: _377  and  _378
REMARK  155  A    between atoms: _378  and  _379
REMARK  156  A    between atoms: _382  and  _384
REMARK  157  A    between atoms: _384  and  _385
REMARK  158  A    between atoms: _384  and  _387
REMARK  159  A    between atoms: _387  and  _388
REMARK  160  A    between atoms: _388  and  _389
REMARK  161  A    between atoms: _389  and  _390
REMARK  162  A    between atoms: _390  and  _391
REMARK  163  A    between atoms: _395  and  _397
REMARK  164  A    between atoms: _397  and  _398
REMARK  165  A    between atoms: _397  and  _400
REMARK  166  A    between atoms: _403  and  _405
REMARK  167  A    between atoms: _405  and  _406
REMARK  168  A    between atoms: _405  and  _408
REMARK  169  A    between atoms: _411  and  _413
REMARK  170  A    between atoms: _413  and  _414
REMARK  171  A    between atoms: _416  and  _418
REMARK  172  A    between atoms: _418  and  _419
REMARK  173  A    between atoms: _421  and  _423
REMARK  174  A    between atoms: _423  and  _424
REMARK  175  A    between atoms: _423  and  _426
REMARK  176  A    between atoms: _426  and  _427
REMARK  177  A    between atoms: _430  and  _432
REMARK  178  A    between atoms: _432  and  _433
REMARK  179  A    between atoms: _435  and  _437
REMARK  180  A    between atoms: _437  and  _438
REMARK  181  A    between atoms: _440  and  _442
REMARK  182  A    between atoms: _442  and  _443
REMARK  183  A    between atoms: _442  and  _445
REMARK  184  A    between atoms: _445  and  _446
REMARK  185  A    between atoms: _446  and  _447
REMARK  186  A    between atoms: _449  and  _451
REMARK  187  A    between atoms: _451  and  _452
REMARK  188  A    between atoms: _451  and  _454
REMARK  189  A    between atoms: _454  and  _455
REMARK  190  A    between atoms: _459  and  _460
REMARK  191  A    between atoms: _465  and  _467
REMARK  192  A    between atoms: _467  and  _468
REMARK  193  A    between atoms: _467  and  _470
REMARK  194  A    between atoms: _470  and  _471
REMARK  195  A    between atoms: _475  and  _476
REMARK  196  A    between atoms: _481  and  _483
REMARK  197  A    between atoms: _483  and  _484
REMARK  198  A    between atoms: _487  and  _489
REMARK  199  A    between atoms: _489  and  _490
REMARK  200  A    between atoms: _489  and  _492
REMARK  201  A    between atoms: _492  and  _493
REMARK  202  A    between atoms: _498  and  _500
REMARK  203  A    between atoms: _500  and  _501
REMARK  204  A    between atoms: _500  and  _503
REMARK  205  A    between atoms: _503  and  _504
REMARK  206  A    between atoms: _507  and  _509
REMARK  207  A    between atoms: _509  and  _510
REMARK  208  A    between atoms: _509  and  _512
REMARK  209  A    between atoms: _512  and  _513
REMARK  210  A    between atoms: _516  and  _518
REMARK  211  A    between atoms: _518  and  _519
REMARK  212  A    between atoms: _521  and  _523
REMARK  213  A    between atoms: _523  and  _524
REMARK  214  A    between atoms: _523  and  _526
REMARK  215  A    between atoms: _526  and  _527
REMARK  216  A    between atoms: _527  and  _528
REMARK  217  A    between atoms: _528  and  _529
REMARK  218  A    between atoms: _538  and  _540
REMARK  219  A    between atoms: _540  and  _541
REMARK  220  A    between atoms: _540  and  _543
REMARK  221  A    between atoms: _543  and  _544
REMARK                            x       y       z     vdW  Elec       q    Type
REMARK                         _______ _______ _______ _____ _____    ______ ____
ROOT
ATOM      1  O   HOH     1     -16.488  57.693  12.344  0.00  0.00    +0.000 OA
ENDROOT
TORSDOF 0
REMARK  Name = ../refined-set-2016/4m8x/4m8x_pocket.pdb
REMARK  221 active torsions:
REMARK  status: ('A' for Active; 'I' for Inactive)
REMARK    1  A    between atoms: _1  and  _3
REMARK    2  A    between atoms: _3  and  _4
REMARK    3  A    between atoms: _3  and  _6
REMARK    4  A    between atoms: _6  and  _7
REMARK    5  A    between atoms: _7  and  _8
REMARK    6  A    between atoms: _8  and  _9
REMARK    7  A    between atoms: _18  and  _20
REMARK    8  A    between atoms: _20  and  _21
REMARK    9  A    between atoms: _20  and  _23
REMARK   10  A    between atoms: _23  and  _24
REMARK   11  A    between atoms: _27  and  _29
REMARK   12  A    between atoms: _29  and  _30
REMARK   13  A    between atoms: _29  and  _32
REMARK   14  A    between atoms: _32  and  _33
REMARK   15  A    between atoms: _36  and  _38
REMARK   16  A    between atoms: _38  and  _39
REMARK   17  A    between atoms: _38  and  _41
REMARK   18  A    between atoms: _41  and  _42
REMARK   19  A    between atoms: _45  and  _47
REMARK   20  A    between atoms: _47  and  _48
REMARK   21  A    between atoms: _47  and  _50
REMARK   22  A    between atoms: _50  and  _51
REMARK   23  A    between atoms: _54  and  _56
REMARK   24  A    between atoms: _56  and  _57
REMARK   25  A    between atoms: _59  and  _61
REMARK   26  A    between atoms: _61  and  _62
REMARK   27  A    between atoms: _65  and  _67
REMARK   28  A    between atoms: _67  and  _68
REMARK   29  A    between atoms: _67  and  _70
REMARK   30  A    between atoms: _70  and  _71
REMARK   31  A    between atoms: _74  and  _76
REMARK   32  A    between atoms: _76  and  _77
REMARK   33  A    between atoms: _76  and  _79
REMARK   34  A    between atoms: _79  and  _80
REMARK   35  A    between atoms: _83  and  _85
REMARK   36  A    between atoms: _85  and  _86
REMARK   37  A    between atoms: _85  and  _88
REMARK   38  A    between atoms: _88  and  _89
REMARK   39  A    between atoms: _92  and  _94
REMARK   40  A    between atoms: _94  and  _95
REMARK   41  A    between atoms: _94  and  _97
REMARK   42  A    between atoms: _97  and  _98
REMARK   43  A    between atoms: _101  and  _103
REMARK   44  A    between atoms: _103  and  _104
REMARK   45  A    between atoms: _103  and  _106
REMARK   46  A    between atoms: _109  and  _111
REMARK   47  A    between atoms: _111  and  _112
REMARK   48  A    between atoms: _111  and  _114
REMARK   49  A    between atoms: _117  and  _119
REMARK   50  A    between atoms: _119  and  _120
REMARK   51  A    between atoms: _122  and  _124
REMARK   52  A    between atoms: _124  and  _125
REMARK   53  A    between atoms: _127  and  _129
REMARK   54  A    between atoms: _129  and  _130
REMARK   55  A    between atoms: _129  and  _132
REMARK   56  A    between atoms: _132  and  _133
REMARK   57  A    between atoms: _136  and  _138
REMARK   58  A    between atoms: _138  and  _139
REMARK   59  A    between atoms: _141  and  _143
REMARK   60  A    between atoms: _143  and  _144
REMARK   61  A    between atoms: _146  and  _148
REMARK   62  A    between atoms: _148  and  _149
REMARK   63  A    between atoms: _148  and  _151
REMARK   64  A    between atoms: _151  and  _152
REMARK   65  A    between atoms: _158  and  _160
REMARK   66  A    between atoms: _160  and  _161
REMARK   67  A    between atoms: _160  and  _163
REMARK   68  A    between atoms: _163  and  _164
REMARK   69  A    between atoms: _164  and  _165
REMARK   70  A    between atoms: _167  and  _169
REMARK   71  A    between atoms: _169  and  _170
REMARK   72  A    between atoms: _169  and  _172
REMARK   73  A    between atoms: _172  and  _173
REMARK   74  A    between atoms: _176  and  _178
REMARK   75  A    between atoms: _178  and  _179
REMARK   76  A    between atoms: _178  and  _181
REMARK   77  A    between atoms: _181  and  _182
REMARK   78  A    between atoms: _186  and  _187
REMARK   79  A    between atoms: _192  and  _194
REMARK   80  A    between atoms: _194  and  _195
REMARK   81  A    between atoms: _198  and  _200
REMARK   82  A    between atoms: _200  and  _201
REMARK   83  A    between atoms: _200  and  _203
REMARK   84  A    between atoms: _203  and  _204
REMARK   85  A    between atoms: _209  and  _211
REMARK   86  A    between atoms: _211  and  _212
REMARK   87  A    between atoms: _211  and  _214
REMARK   88  A    between atoms: _214  and  _215
REMARK   89  A    between atoms: _218  and  _220
REMARK   90  A    between atoms: _220  and  _221
REMARK   91  A    between atoms: _220  and  _223
REMARK   92  A    between atoms: _223  and  _224
REMARK   93  A    between atoms: _227  and  _229
REMARK   94  A    between atoms: _229  and  _230
REMARK   95  A    between atoms: _232  and  _234
REMARK   96  A    between atoms: _234  and  _235
REMARK   97  A    between atoms: _234  and  _237
REMARK   98  A    between atoms: _237  and  _238
REMARK   99  A    between atoms: _238  and  _239
REMARK  100  A    between atoms: _239  and  _240
REMARK  101  A    between atoms: _249  and  _251
REMARK  102  A    between atoms: _251  and  _252
REMARK  103  A    between atoms: _251  and  _254
REMARK  104  A    between atoms: _254  and  _255
REMARK  105  A    between atoms: _260  and  _262
REMARK  106  A    between atoms: _262  and  _263
REMARK  107  A    between atoms: _262  and  _265
REMARK  108  A    between atoms: _265  and  _266
REMARK  109  A    between atoms: _266  and  _267
REMARK  110  A    between atoms: _267  and  _268
REMARK  111  A    between atoms: _277  and  _279
REMARK  112  A    between atoms: _279  and  _280
REMARK  113  A    between atoms: _279  and  _282
REMARK  114  A    between atoms: _282  and  _283
REMARK  115  A    between atoms: _289  and  _291
REMARK  116  A    between atoms: _291  and  _292
REMARK  117  A    between atoms: _291  and  _294
REMARK  118  A    between atoms: _294  and  _295
REMARK  119  A    between atoms: _298  and  _300
REMARK  120  A    between atoms: _300  and  _301
REMARK  121  A    between atoms: _300  and  _303
REMARK  122  A    between atoms: _303  and  _304
REMARK  123  A    between atoms: _307  and  _309
REMARK  124  A    between atoms: _309  and  _310
REMARK  125  A    between atoms: _309  and  _312
REMARK  126  A    between atoms: _312  and  _313
REMARK  127  A    between atoms: _316  and  _318
REMARK  128  A    between atoms: _318  and  _319
REMARK  129  A    between atoms: _318  and  _321
REMARK  130  A    between atoms: _321  and  _322
REMARK  131  A    between atoms: _325  and  _327
REMARK  132  A    between atoms: _327  and  _328
REMARK  133  A    between atoms: _330  and  _332
REMARK  134  A    between atoms: _332  and  _333
REMARK  135  A    between atoms: _336  and  _338
REMARK  136  A    between atoms: _338  and  _339
REMARK  137  A    between atoms: _338  and  _341
REMARK  138  A    between atoms: _341  and  _342
REMARK  139  A    between atoms: _345  and  _347
REMARK  140  A    between atoms: _347  and  _348
REMARK  141  A    between atoms: _347  and  _350
REMARK  142  A    between atoms: _350  and  _351
REMARK  143  A    between atoms: _354  and  _356
REMARK  144  A    between atoms: _356  and  _357
REMARK  145  A    between atoms: _356  and  _359
REMARK  146  A    between atoms: _359  and  _360
REMARK  147  A    between atoms: _363  and  _365
REMARK  148  A    between atoms: _365  and  _366
REMARK  149  A    between atoms: _365  and  _368
REMARK  150  A    between atoms: _368  and  _369
REMARK  151  A    between atoms: _372  and  _374
REMARK  152  A    between atoms: _374  and  _375
REMARK  153  A    between atoms: _374  and  _377
REMARK  154  A    between atoms: _377  and  _378
REMARK  155  A    between atoms: _378  and  _379
REMARK  156  A    between atoms: _382  and  _384
REMARK  157  A    between atoms: _384  and  _385
REMARK  158  A    between atoms: _384  and  _387
REMARK  159  A    between atoms: _387  and  _388
REMARK  160  A    between atoms: _388  and  _389
REMARK  161  A    between atoms: _389  and  _390
REMARK  162  A    between atoms: _390  and  _391
REMARK  163  A    between atoms: _395  and  _397
REMARK  164  A    between atoms: _397  and  _398
REMARK  165  A    between atoms: _397  and  _400
REMARK  166  A    between atoms: _403  and  _405
REMARK  167  A    between atoms: _405  and  _406
REMARK  168  A    between atoms: _405  and  _408
REMARK  169  A    between atoms: _411  and  _413
REMARK  170  A    between atoms: _413  and  _414
REMARK  171  A    between atoms: _416  and  _418
REMARK  172  A    between atoms: _418  and  _419
REMARK  173  A    between atoms: _421  and  _423
REMARK  174  A    between atoms: _423  and  _424
REMARK  175  A    between atoms: _423  and  _426
REMARK  176  A    between atoms: _426  and  _427
REMARK  177  A    between atoms: _430  and  _432
REMARK  178  A    between atoms: _432  and  _433
REMARK  179  A    between atoms: _435  and  _437
REMARK  180  A    between atoms: _437  and  _438
REMARK  181  A    between atoms: _440  and  _442
REMARK  182  A    between atoms: _442  and  _443
REMARK  183  A    between atoms: _442  and  _445
REMARK  184  A    between atoms: _445  and  _446
REMARK  185  A    between atoms: _446  and  _447
REMARK  186  A    between atoms: _449  and  _451
REMARK  187  A    between atoms: _451  and  _452
REMARK  188  A    between atoms: _451  and  _454
REMARK  189  A    between atoms: _454  and  _455
REMARK  190  A    between atoms: _459  and  _460
REMARK  191  A    between atoms: _465  and  _467
REMARK  192  A    between atoms: _467  and  _468
REMARK  193  A    between atoms: _467  and  _470
REMARK  194  A    between atoms: _470  and  _471
REMARK  195  A    between atoms: _475  and  _476
REMARK  196  A    between atoms: _481  and  _483
REMARK  197  A    between atoms: _483  and  _484
REMARK  198  A    between atoms: _487  and  _489
REMARK  199  A    between atoms: _489  and  _490
REMARK  200  A    between atoms: _489  and  _492
REMARK  201  A    between atoms: _492  and  _493
REMARK  202  A    between atoms: _498  and  _500
REMARK  203  A    between atoms: _500  and  _501
REMARK  204  A    between atoms: _500  and  _503
REMARK  205  A    between atoms: _503  and  _504
REMARK  206  A    between atoms: _507  and  _509
REMARK  207  A    between atoms: _509  and  _510
REMARK  208  A    between atoms: _509  and  _512
REMARK  209  A    between atoms: _512  and  _513
REMARK  210  A    between atoms: _516  and  _518
REMARK  211  A    between atoms: _518  and  _519
REMARK  212  A    between atoms: _521  and  _523
REMARK  213  A    between atoms: _523  and  _524
REMARK  214  A    between atoms: _523  and  _526
REMARK  215  A    between atoms: _526  and  _527
REMARK  216  A    between atoms: _527  and  _528
REMARK  217  A    between atoms: _528  and  _529
REMARK  218  A    between atoms: _538  and  _540
REMARK  219  A    between atoms: _540  and  _541
REMARK  220  A    between atoms: _540  and  _543
REMARK  221  A    between atoms: _543  and  _544
REMARK                            x       y       z     vdW  Elec       q    Type
REMARK                         _______ _______ _______ _____ _____    ______ ____
ROOT
ATOM      1  O   HOH     1      -6.321  58.524   8.525  0.00  0.00    +0.000 OA
ENDROOT
TORSDOF 0
REMARK  Name = ../refined-set-2016/4m8x/4m8x_pocket.pdb
REMARK  221 active torsions:
REMARK  status: ('A' for Active; 'I' for Inactive)
REMARK    1  A    between atoms: _1  and  _3
REMARK    2  A    between atoms: _3  and  _4
REMARK    3  A    between atoms: _3  and  _6
REMARK    4  A    between atoms: _6  and  _7
REMARK    5  A    between atoms: _7  and  _8
REMARK    6  A    between atoms: _8  and  _9
REMARK    7  A    between atoms: _18  and  _20
REMARK    8  A    between atoms: _20  and  _21
REMARK    9  A    between atoms: _20  and  _23
REMARK   10  A    between atoms: _23  and  _24
REMARK   11  A    between atoms: _27  and  _29
REMARK   12  A    between atoms: _29  and  _30
REMARK   13  A    between atoms: _29  and  _32
REMARK   14  A    between atoms: _32  and  _33
REMARK   15  A    between atoms: _36  and  _38
REMARK   16  A    between atoms: _38  and  _39
REMARK   17  A    between atoms: _38  and  _41
REMARK   18  A    between atoms: _41  and  _42
REMARK   19  A    between atoms: _45  and  _47
REMARK   20  A    between atoms: _47  and  _48
REMARK   21  A    between atoms: _47  and  _50
REMARK   22  A    between atoms: _50  and  _51
REMARK   23  A    between atoms: _54  and  _56
REMARK   24  A    between atoms: _56  and  _57
REMARK   25  A    between atoms: _59  and  _61
REMARK   26  A    between atoms: _61  and  _62
REMARK   27  A    between atoms: _65  and  _67
REMARK   28  A    between atoms: _67  and  _68
REMARK   29  A    between atoms: _67  and  _70
REMARK   30  A    between atoms: _70  and  _71
REMARK   31  A    between atoms: _74  and  _76
REMARK   32  A    between atoms: _76  and  _77
REMARK   33  A    between atoms: _76  and  _79
REMARK   34  A    between atoms: _79  and  _80
REMARK   35  A    between atoms: _83  and  _85
REMARK   36  A    between atoms: _85  and  _86
REMARK   37  A    between atoms: _85  and  _88
REMARK   38  A    between atoms: _88  and  _89
REMARK   39  A    between atoms: _92  and  _94
REMARK   40  A    between atoms: _94  and  _95
REMARK   41  A    between atoms: _94  and  _97
REMARK   42  A    between atoms: _97  and  _98
REMARK   43  A    between atoms: _101  and  _103
REMARK   44  A    between atoms: _103  and  _104
REMARK   45  A    between atoms: _103  and  _106
REMARK   46  A    between atoms: _109  and  _111
REMARK   47  A    between atoms: _111  and  _112
REMARK   48  A    between atoms: _111  and  _114
REMARK   49  A    between atoms: _117  and  _119
REMARK   50  A    between atoms: _119  and  _120
REMARK   51  A    between atoms: _122  and  _124
REMARK   52  A    between atoms: _124  and  _125
REMARK   53  A    between atoms: _127  and  _129
REMARK   54  A    between atoms: _129  and  _130
REMARK   55  A    between atoms: _129  and  _132
REMARK   56  A    between atoms: _132  and  _133
REMARK   57  A    between atoms: _136  and  _138
REMARK   58  A    between atoms: _138  and  _139
REMARK   59  A    between atoms: _141  and  _143
REMARK   60  A    between atoms: _143  and  _144
REMARK   61  A    between atoms: _146  and  _148
REMARK   62  A    between atoms: _148  and  _149
REMARK   63  A    between atoms: _148  and  _151
REMARK   64  A    between atoms: _151  and  _152
REMARK   65  A    between atoms: _158  and  _160
REMARK   66  A    between atoms: _160  and  _161
REMARK   67  A    between atoms: _160  and  _163
REMARK   68  A    between atoms: _163  and  _164
REMARK   69  A    between atoms: _164  and  _165
REMARK   70  A    between atoms: _167  and  _169
REMARK   71  A    between atoms: _169  and  _170
REMARK   72  A    between atoms: _169  and  _172
REMARK   73  A    between atoms: _172  and  _173
REMARK   74  A    between atoms: _176  and  _178
REMARK   75  A    between atoms: _178  and  _179
REMARK   76  A    between atoms: _178  and  _181
REMARK   77  A    between atoms: _181  and  _182
REMARK   78  A    between atoms: _186  and  _187
REMARK   79  A    between atoms: _192  and  _194
REMARK   80  A    between atoms: _194  and  _195
REMARK   81  A    between atoms: _198  and  _200
REMARK   82  A    between atoms: _200  and  _201
REMARK   83  A    between atoms: _200  and  _203
REMARK   84  A    between atoms: _203  and  _204
REMARK   85  A    between atoms: _209  and  _211
REMARK   86  A    between atoms: _211  and  _212
REMARK   87  A    between atoms: _211  and  _214
REMARK   88  A    between atoms: _214  and  _215
REMARK   89  A    between atoms: _218  and  _220
REMARK   90  A    between atoms: _220  and  _221
REMARK   91  A    between atoms: _220  and  _223
REMARK   92  A    between atoms: _223  and  _224
REMARK   93  A    between atoms: _227  and  _229
REMARK   94  A    between atoms: _229  and  _230
REMARK   95  A    between atoms: _232  and  _234
REMARK   96  A    between atoms: _234  and  _235
REMARK   97  A    between atoms: _234  and  _237
REMARK   98  A    between atoms: _237  and  _238
REMARK   99  A    between atoms: _238  and  _239
REMARK  100  A    between atoms: _239  and  _240
REMARK  101  A    between atoms: _249  and  _251
REMARK  102  A    between atoms: _251  and  _252
REMARK  103  A    between atoms: _251  and  _254
REMARK  104  A    between atoms: _254  and  _255
REMARK  105  A    between atoms: _260  and  _262
REMARK  106  A    between atoms: _262  and  _263
REMARK  107  A    between atoms: _262  and  _265
REMARK  108  A    between atoms: _265  and  _266
REMARK  109  A    between atoms: _266  and  _267
REMARK  110  A    between atoms: _267  and  _268
REMARK  111  A    between atoms: _277  and  _279
REMARK  112  A    between atoms: _279  and  _280
REMARK  113  A    between atoms: _279  and  _282
REMARK  114  A    between atoms: _282  and  _283
REMARK  115  A    between atoms: _289  and  _291
REMARK  116  A    between atoms: _291  and  _292
REMARK  117  A    between atoms: _291  and  _294
REMARK  118  A    between atoms: _294  and  _295
REMARK  119  A    between atoms: _298  and  _300
REMARK  120  A    between atoms: _300  and  _301
REMARK  121  A    between atoms: _300  and  _303
REMARK  122  A    between atoms: _303  and  _304
REMARK  123  A    between atoms: _307  and  _309
REMARK  124  A    between atoms: _309  and  _310
REMARK  125  A    between atoms: _309  and  _312
REMARK  126  A    between atoms: _312  and  _313
REMARK  127  A    between atoms: _316  and  _318
REMARK  128  A    between atoms: _318  and  _319
REMARK  129  A    between atoms: _318  and  _321
REMARK  130  A    between atoms: _321  and  _322
REMARK  131  A    between atoms: _325  and  _327
REMARK  132  A    between atoms: _327  and  _328
REMARK  133  A    between atoms: _330  and  _332
REMARK  134  A    between atoms: _332  and  _333
REMARK  135  A    between atoms: _336  and  _338
REMARK  136  A    between atoms: _338  and  _339
REMARK  137  A    between atoms: _338  and  _341
REMARK  138  A    between atoms: _341  and  _342
REMARK  139  A    between atoms: _345  and  _347
REMARK  140  A    between atoms: _347  and  _348
REMARK  141  A    between atoms: _347  and  _350
REMARK  142  A    between atoms: _350  and  _351
REMARK  143  A    between atoms: _354  and  _356
REMARK  144  A    between atoms: _356  and  _357
REMARK  145  A    between atoms: _356  and  _359
REMARK  146  A    between atoms: _359  and  _360
REMARK  147  A    between atoms: _363  and  _365
REMARK  148  A    between atoms: _365  and  _366
REMARK  149  A    between atoms: _365  and  _368
REMARK  150  A    between atoms: _368  and  _369
REMARK  151  A    between atoms: _372  and  _374
REMARK  152  A    between atoms: _374  and  _375
REMARK  153  A    between atoms: _374  and  _377
REMARK  154  A    between atoms: _377  and  _378
REMARK  155  A    between atoms: _378  and  _379
REMARK  156  A    between atoms: _382  and  _384
REMARK  157  A    between atoms: _384  and  _385
REMARK  158  A    between atoms: _384  and  _387
REMARK  159  A    between atoms: _387  and  _388
REMARK  160  A    between atoms: _388  and  _389
REMARK  161  A    between atoms: _389  and  _390
REMARK  162  A    between atoms: _390  and  _391
REMARK  163  A    between atoms: _395  and  _397
REMARK  164  A    between atoms: _397  and  _398
REMARK  165  A    between atoms: _397  and  _400
REMARK  166  A    between atoms: _403  and  _405
REMARK  167  A    between atoms: _405  and  _406
REMARK  168  A    between atoms: _405  and  _408
REMARK  169  A    between atoms: _411  and  _413
REMARK  170  A    between atoms: _413  and  _414
REMARK  171  A    between atoms: _416  and  _418
REMARK  172  A    between atoms: _418  and  _419
REMARK  173  A    between atoms: _421  and  _423
REMARK  174  A    between atoms: _423  and  _424
REMARK  175  A    between atoms: _423  and  _426
REMARK  176  A    between atoms: _426  and  _427
REMARK  177  A    between atoms: _430  and  _432
REMARK  178  A    between atoms: _432  and  _433
REMARK  179  A    between atoms: _435  and  _437
REMARK  180  A    between atoms: _437  and  _438
REMARK  181  A    between atoms: _440  and  _442
REMARK  182  A    between atoms: _442  and  _443
REMARK  183  A    between atoms: _442  and  _445
REMARK  184  A    between atoms: _445  and  _446
REMARK  185  A    between atoms: _446  and  _447
REMARK  186  A    between atoms: _449  and  _451
REMARK  187  A    between atoms: _451  and  _452
REMARK  188  A    between atoms: _451  and  _454
REMARK  189  A    between atoms: _454  and  _455
REMARK  190  A    between atoms: _459  and  _460
REMARK  191  A    between atoms: _465  and  _467
REMARK  192  A    between atoms: _467  and  _468
REMARK  193  A    between atoms: _467  and  _470
REMARK  194  A    between atoms: _470  and  _471
REMARK  195  A    between atoms: _475  and  _476
REMARK  196  A    between atoms: _481  and  _483
REMARK  197  A    between atoms: _483  and  _484
REMARK  198  A    between atoms: _487  and  _489
REMARK  199  A    between atoms: _489  and  _490
REMARK  200  A    between atoms: _489  and  _492
REMARK  201  A    between atoms: _492  and  _493
REMARK  202  A    between atoms: _498  and  _500
REMARK  203  A    between atoms: _500  and  _501
REMARK  204  A    between atoms: _500  and  _503
REMARK  205  A    between atoms: _503  and  _504
REMARK  206  A    between atoms: _507  and  _509
REMARK  207  A    between atoms: _509  and  _510
REMARK  208  A    between atoms: _509  and  _512
REMARK  209  A    between atoms: _512  and  _513
REMARK  210  A    between atoms: _516  and  _518
REMARK  211  A    between atoms: _518  and  _519
REMARK  212  A    between atoms: _521  and  _523
REMARK  213  A    between atoms: _523  and  _524
REMARK  214  A    between atoms: _523  and  _526
REMARK  215  A    between atoms: _526  and  _527
REMARK  216  A    between atoms: _527  and  _528
REMARK  217  A    between atoms: _528  and  _529
REMARK  218  A    between atoms: _538  and  _540
REMARK  219  A    between atoms: _540  and  _541
REMARK  220  A    between atoms: _540  and  _543
REMARK  221  A    between atoms: _543  and  _544
REMARK                            x       y       z     vdW  Elec       q    Type
REMARK                         _______ _______ _______ _____ _____    ______ ____
ROOT
ATOM      1  O   HOH     1      -9.133  59.267   8.212  0.00  0.00    +0.000 OA
ENDROOT
TORSDOF 0
REMARK  Name = ../refined-set-2016/4m8x/4m8x_pocket.pdb
REMARK  221 active torsions:
REMARK  status: ('A' for Active; 'I' for Inactive)
REMARK    1  A    between atoms: _1  and  _3
REMARK    2  A    between atoms: _3  and  _4
REMARK    3  A    between atoms: _3  and  _6
REMARK    4  A    between atoms: _6  and  _7
REMARK    5  A    between atoms: _7  and  _8
REMARK    6  A    between atoms: _8  and  _9
REMARK    7  A    between atoms: _18  and  _20
REMARK    8  A    between atoms: _20  and  _21
REMARK    9  A    between atoms: _20  and  _23
REMARK   10  A    between atoms: _23  and  _24
REMARK   11  A    between atoms: _27  and  _29
REMARK   12  A    between atoms: _29  and  _30
REMARK   13  A    between atoms: _29  and  _32
REMARK   14  A    between atoms: _32  and  _33
REMARK   15  A    between atoms: _36  and  _38
REMARK   16  A    between atoms: _38  and  _39
REMARK   17  A    between atoms: _38  and  _41
REMARK   18  A    between atoms: _41  and  _42
REMARK   19  A    between atoms: _45  and  _47
REMARK   20  A    between atoms: _47  and  _48
REMARK   21  A    between atoms: _47  and  _50
REMARK   22  A    between atoms: _50  and  _51
REMARK   23  A    between atoms: _54  and  _56
REMARK   24  A    between atoms: _56  and  _57
REMARK   25  A    between atoms: _59  and  _61
REMARK   26  A    between atoms: _61  and  _62
REMARK   27  A    between atoms: _65  and  _67
REMARK   28  A    between atoms: _67  and  _68
REMARK   29  A    between atoms: _67  and  _70
REMARK   30  A    between atoms: _70  and  _71
REMARK   31  A    between atoms: _74  and  _76
REMARK   32  A    between atoms: _76  and  _77
REMARK   33  A    between atoms: _76  and  _79
REMARK   34  A    between atoms: _79  and  _80
REMARK   35  A    between atoms: _83  and  _85
REMARK   36  A    between atoms: _85  and  _86
REMARK   37  A    between atoms: _85  and  _88
REMARK   38  A    between atoms: _88  and  _89
REMARK   39  A    between atoms: _92  and  _94
REMARK   40  A    between atoms: _94  and  _95
REMARK   41  A    between atoms: _94  and  _97
REMARK   42  A    between atoms: _97  and  _98
REMARK   43  A    between atoms: _101  and  _103
REMARK   44  A    between atoms: _103  and  _104
REMARK   45  A    between atoms: _103  and  _106
REMARK   46  A    between atoms: _109  and  _111
REMARK   47  A    between atoms: _111  and  _112
REMARK   48  A    between atoms: _111  and  _114
REMARK   49  A    between atoms: _117  and  _119
REMARK   50  A    between atoms: _119  and  _120
REMARK   51  A    between atoms: _122  and  _124
REMARK   52  A    between atoms: _124  and  _125
REMARK   53  A    between atoms: _127  and  _129
REMARK   54  A    between atoms: _129  and  _130
REMARK   55  A    between atoms: _129  and  _132
REMARK   56  A    between atoms: _132  and  _133
REMARK   57  A    between atoms: _136  and  _138
REMARK   58  A    between atoms: _138  and  _139
REMARK   59  A    between atoms: _141  and  _143
REMARK   60  A    between atoms: _143  and  _144
REMARK   61  A    between atoms: _146  and  _148
REMARK   62  A    between atoms: _148  and  _149
REMARK   63  A    between atoms: _148  and  _151
REMARK   64  A    between atoms: _151  and  _152
REMARK   65  A    between atoms: _158  and  _160
REMARK   66  A    between atoms: _160  and  _161
REMARK   67  A    between atoms: _160  and  _163
REMARK   68  A    between atoms: _163  and  _164
REMARK   69  A    between atoms: _164  and  _165
REMARK   70  A    between atoms: _167  and  _169
REMARK   71  A    between atoms: _169  and  _170
REMARK   72  A    between atoms: _169  and  _172
REMARK   73  A    between atoms: _172  and  _173
REMARK   74  A    between atoms: _176  and  _178
REMARK   75  A    between atoms: _178  and  _179
REMARK   76  A    between atoms: _178  and  _181
REMARK   77  A    between atoms: _181  and  _182
REMARK   78  A    between atoms: _186  and  _187
REMARK   79  A    between atoms: _192  and  _194
REMARK   80  A    between atoms: _194  and  _195
REMARK   81  A    between atoms: _198  and  _200
REMARK   82  A    between atoms: _200  and  _201
REMARK   83  A    between atoms: _200  and  _203
REMARK   84  A    between atoms: _203  and  _204
REMARK   85  A    between atoms: _209  and  _211
REMARK   86  A    between atoms: _211  and  _212
REMARK   87  A    between atoms: _211  and  _214
REMARK   88  A    between atoms: _214  and  _215
REMARK   89  A    between atoms: _218  and  _220
REMARK   90  A    between atoms: _220  and  _221
REMARK   91  A    between atoms: _220  and  _223
REMARK   92  A    between atoms: _223  and  _224
REMARK   93  A    between atoms: _227  and  _229
REMARK   94  A    between atoms: _229  and  _230
REMARK   95  A    between atoms: _232  and  _234
REMARK   96  A    between atoms: _234  and  _235
REMARK   97  A    between atoms: _234  and  _237
REMARK   98  A    between atoms: _237  and  _238
REMARK   99  A    between atoms: _238  and  _239
REMARK  100  A    between atoms: _239  and  _240
REMARK  101  A    between atoms: _249  and  _251
REMARK  102  A    between atoms: _251  and  _252
REMARK  103  A    between atoms: _251  and  _254
REMARK  104  A    between atoms: _254  and  _255
REMARK  105  A    between atoms: _260  and  _262
REMARK  106  A    between atoms: _262  and  _263
REMARK  107  A    between atoms: _262  and  _265
REMARK  108  A    between atoms: _265  and  _266
REMARK  109  A    between atoms: _266  and  _267
REMARK  110  A    between atoms: _267  and  _268
REMARK  111  A    between atoms: _277  and  _279
REMARK  112  A    between atoms: _279  and  _280
REMARK  113  A    between atoms: _279  and  _282
REMARK  114  A    between atoms: _282  and  _283
REMARK  115  A    between atoms: _289  and  _291
REMARK  116  A    between atoms: _291  and  _292
REMARK  117  A    between atoms: _291  and  _294
REMARK  118  A    between atoms: _294  and  _295
REMARK  119  A    between atoms: _298  and  _300
REMARK  120  A    between atoms: _300  and  _301
REMARK  121  A    between atoms: _300  and  _303
REMARK  122  A    between atoms: _303  and  _304
REMARK  123  A    between atoms: _307  and  _309
REMARK  124  A    between atoms: _309  and  _310
REMARK  125  A    between atoms: _309  and  _312
REMARK  126  A    between atoms: _312  and  _313
REMARK  127  A    between atoms: _316  and  _318
REMARK  128  A    between atoms: _318  and  _319
REMARK  129  A    between atoms: _318  and  _321
REMARK  130  A    between atoms: _321  and  _322
REMARK  131  A    between atoms: _325  and  _327
REMARK  132  A    between atoms: _327  and  _328
REMARK  133  A    between atoms: _330  and  _332
REMARK  134  A    between atoms: _332  and  _333
REMARK  135  A    between atoms: _336  and  _338
REMARK  136  A    between atoms: _338  and  _339
REMARK  137  A    between atoms: _338  and  _341
REMARK  138  A    between atoms: _341  and  _342
REMARK  139  A    between atoms: _345  and  _347
REMARK  140  A    between atoms: _347  and  _348
REMARK  141  A    between atoms: _347  and  _350
REMARK  142  A    between atoms: _350  and  _351
REMARK  143  A    between atoms: _354  and  _356
REMARK  144  A    between atoms: _356  and  _357
REMARK  145  A    between atoms: _356  and  _359
REMARK  146  A    between atoms: _359  and  _360
REMARK  147  A    between atoms: _363  and  _365
REMARK  148  A    between atoms: _365  and  _366
REMARK  149  A    between atoms: _365  and  _368
REMARK  150  A    between atoms: _368  and  _369
REMARK  151  A    between atoms: _372  and  _374
REMARK  152  A    between atoms: _374  and  _375
REMARK  153  A    between atoms: _374  and  _377
REMARK  154  A    between atoms: _377  and  _378
REMARK  155  A    between atoms: _378  and  _379
REMARK  156  A    between atoms: _382  and  _384
REMARK  157  A    between atoms: _384  and  _385
REMARK  158  A    between atoms: _384  and  _387
REMARK  159  A    between atoms: _387  and  _388
REMARK  160  A    between atoms: _388  and  _389
REMARK  161  A    between atoms: _389  and  _390
REMARK  162  A    between atoms: _390  and  _391
REMARK  163  A    between atoms: _395  and  _397
REMARK  164  A    between atoms: _397  and  _398
REMARK  165  A    between atoms: _397  and  _400
REMARK  166  A    between atoms: _403  and  _405
REMARK  167  A    between atoms: _405  and  _406
REMARK  168  A    between atoms: _405  and  _408
REMARK  169  A    between atoms: _411  and  _413
REMARK  170  A    between atoms: _413  and  _414
REMARK  171  A    between atoms: _416  and  _418
REMARK  172  A    between atoms: _418  and  _419
REMARK  173  A    between atoms: _421  and  _423
REMARK  174  A    between atoms: _423  and  _424
REMARK  175  A    between atoms: _423  and  _426
REMARK  176  A    between atoms: _426  and  _427
REMARK  177  A    between atoms: _430  and  _432
REMARK  178  A    between atoms: _432  and  _433
REMARK  179  A    between atoms: _435  and  _437
REMARK  180  A    between atoms: _437  and  _438
REMARK  181  A    between atoms: _440  and  _442
REMARK  182  A    between atoms: _442  and  _443
REMARK  183  A    between atoms: _442  and  _445
REMARK  184  A    between atoms: _445  and  _446
REMARK  185  A    between atoms: _446  and  _447
REMARK  186  A    between atoms: _449  and  _451
REMARK  187  A    between atoms: _451  and  _452
REMARK  188  A    between atoms: _451  and  _454
REMARK  189  A    between atoms: _454  and  _455
REMARK  190  A    between atoms: _459  and  _460
REMARK  191  A    between atoms: _465  and  _467
REMARK  192  A    between atoms: _467  and  _468
REMARK  193  A    between atoms: _467  and  _470
REMARK  194  A    between atoms: _470  and  _471
REMARK  195  A    between atoms: _475  and  _476
REMARK  196  A    between atoms: _481  and  _483
REMARK  197  A    between atoms: _483  and  _484
REMARK  198  A    between atoms: _487  and  _489
REMARK  199  A    between atoms: _489  and  _490
REMARK  200  A    between atoms: _489  and  _492
REMARK  201  A    between atoms: _492  and  _493
REMARK  202  A    between atoms: _498  and  _500
REMARK  203  A    between atoms: _500  and  _501
REMARK  204  A    between atoms: _500  and  _503
REMARK  205  A    between atoms: _503  and  _504
REMARK  206  A    between atoms: _507  and  _509
REMARK  207  A    between atoms: _509  and  _510
REMARK  208  A    between atoms: _509  and  _512
REMARK  209  A    between atoms: _512  and  _513
REMARK  210  A    between atoms: _516  and  _518
REMARK  211  A    between atoms: _518  and  _519
REMARK  212  A    between atoms: _521  and  _523
REMARK  213  A    between atoms: _523  and  _524
REMARK  214  A    between atoms: _523  and  _526
REMARK  215  A    between atoms: _526  and  _527
REMARK  216  A    between atoms: _527  and  _528
REMARK  217  A    between atoms: _528  and  _529
REMARK  218  A    between atoms: _538  and  _540
REMARK  219  A    between atoms: _540  and  _541
REMARK  220  A    between atoms: _540  and  _543
REMARK  221  A    between atoms: _543  and  _544
REMARK                            x       y       z     vdW  Elec       q    Type
REMARK                         _______ _______ _______ _____ _____    ______ ____
ROOT
ATOM      1  O   HOH     1      -6.197  57.235  15.549  0.00  0.00    +0.000 OA
ENDROOT
TORSDOF 0
REMARK  Name = ../refined-set-2016/4m8x/4m8x_pocket.pdb
REMARK  221 active torsions:
REMARK  status: ('A' for Active; 'I' for Inactive)
REMARK    1  A    between atoms: _1  and  _3
REMARK    2  A    between atoms: _3  and  _4
REMARK    3  A    between atoms: _3  and  _6
REMARK    4  A    between atoms: _6  and  _7
REMARK    5  A    between atoms: _7  and  _8
REMARK    6  A    between atoms: _8  and  _9
REMARK    7  A    between atoms: _18  and  _20
REMARK    8  A    between atoms: _20  and  _21
REMARK    9  A    between atoms: _20  and  _23
REMARK   10  A    between atoms: _23  and  _24
REMARK   11  A    between atoms: _27  and  _29
REMARK   12  A    between atoms: _29  and  _30
REMARK   13  A    between atoms: _29  and  _32
REMARK   14  A    between atoms: _32  and  _33
REMARK   15  A    between atoms: _36  and  _38
REMARK   16  A    between atoms: _38  and  _39
REMARK   17  A    between atoms: _38  and  _41
REMARK   18  A    between atoms: _41  and  _42
REMARK   19  A    between atoms: _45  and  _47
REMARK   20  A    between atoms: _47  and  _48
REMARK   21  A    between atoms: _47  and  _50
REMARK   22  A    between atoms: _50  and  _51
REMARK   23  A    between atoms: _54  and  _56
REMARK   24  A    between atoms: _56  and  _57
REMARK   25  A    between atoms: _59  and  _61
REMARK   26  A    between atoms: _61  and  _62
REMARK   27  A    between atoms: _65  and  _67
REMARK   28  A    between atoms: _67  and  _68
REMARK   29  A    between atoms: _67  and  _70
REMARK   30  A    between atoms: _70  and  _71
REMARK   31  A    between atoms: _74  and  _76
REMARK   32  A    between atoms: _76  and  _77
REMARK   33  A    between atoms: _76  and  _79
REMARK   34  A    between atoms: _79  and  _80
REMARK   35  A    between atoms: _83  and  _85
REMARK   36  A    between atoms: _85  and  _86
REMARK   37  A    between atoms: _85  and  _88
REMARK   38  A    between atoms: _88  and  _89
REMARK   39  A    between atoms: _92  and  _94
REMARK   40  A    between atoms: _94  and  _95
REMARK   41  A    between atoms: _94  and  _97
REMARK   42  A    between atoms: _97  and  _98
REMARK   43  A    between atoms: _101  and  _103
REMARK   44  A    between atoms: _103  and  _104
REMARK   45  A    between atoms: _103  and  _106
REMARK   46  A    between atoms: _109  and  _111
REMARK   47  A    between atoms: _111  and  _112
REMARK   48  A    between atoms: _111  and  _114
REMARK   49  A    between atoms: _117  and  _119
REMARK   50  A    between atoms: _119  and  _120
REMARK   51  A    between atoms: _122  and  _124
REMARK   52  A    between atoms: _124  and  _125
REMARK   53  A    between atoms: _127  and  _129
REMARK   54  A    between atoms: _129  and  _130
REMARK   55  A    between atoms: _129  and  _132
REMARK   56  A    between atoms: _132  and  _133
REMARK   57  A    between atoms: _136  and  _138
REMARK   58  A    between atoms: _138  and  _139
REMARK   59  A    between atoms: _141  and  _143
REMARK   60  A    between atoms: _143  and  _144
REMARK   61  A    between atoms: _146  and  _148
REMARK   62  A    between atoms: _148  and  _149
REMARK   63  A    between atoms: _148  and  _151
REMARK   64  A    between atoms: _151  and  _152
REMARK   65  A    between atoms: _158  and  _160
REMARK   66  A    between atoms: _160  and  _161
REMARK   67  A    between atoms: _160  and  _163
REMARK   68  A    between atoms: _163  and  _164
REMARK   69  A    between atoms: _164  and  _165
REMARK   70  A    between atoms: _167  and  _169
REMARK   71  A    between atoms: _169  and  _170
REMARK   72  A    between atoms: _169  and  _172
REMARK   73  A    between atoms: _172  and  _173
REMARK   74  A    between atoms: _176  and  _178
REMARK   75  A    between atoms: _178  and  _179
REMARK   76  A    between atoms: _178  and  _181
REMARK   77  A    between atoms: _181  and  _182
REMARK   78  A    between atoms: _186  and  _187
REMARK   79  A    between atoms: _192  and  _194
REMARK   80  A    between atoms: _194  and  _195
REMARK   81  A    between atoms: _198  and  _200
REMARK   82  A    between atoms: _200  and  _201
REMARK   83  A    between atoms: _200  and  _203
REMARK   84  A    between atoms: _203  and  _204
REMARK   85  A    between atoms: _209  and  _211
REMARK   86  A    between atoms: _211  and  _212
REMARK   87  A    between atoms: _211  and  _214
REMARK   88  A    between atoms: _214  and  _215
REMARK   89  A    between atoms: _218  and  _220
REMARK   90  A    between atoms: _220  and  _221
REMARK   91  A    between atoms: _220  and  _223
REMARK   92  A    between atoms: _223  and  _224
REMARK   93  A    between atoms: _227  and  _229
REMARK   94  A    between atoms: _229  and  _230
REMARK   95  A    between atoms: _232  and  _234
REMARK   96  A    between atoms: _234  and  _235
REMARK   97  A    between atoms: _234  and  _237
REMARK   98  A    between atoms: _237  and  _238
REMARK   99  A    between atoms: _238  and  _239
REMARK  100  A    between atoms: _239  and  _240
REMARK  101  A    between atoms: _249  and  _251
REMARK  102  A    between atoms: _251  and  _252
REMARK  103  A    between atoms: _251  and  _254
REMARK  104  A    between atoms: _254  and  _255
REMARK  105  A    between atoms: _260  and  _262
REMARK  106  A    between atoms: _262  and  _263
REMARK  107  A    between atoms: _262  and  _265
REMARK  108  A    between atoms: _265  and  _266
REMARK  109  A    between atoms: _266  and  _267
REMARK  110  A    between atoms: _267  and  _268
REMARK  111  A    between atoms: _277  and  _279
REMARK  112  A    between atoms: _279  and  _280
REMARK  113  A    between atoms: _279  and  _282
REMARK  114  A    between atoms: _282  and  _283
REMARK  115  A    between atoms: _289  and  _291
REMARK  116  A    between atoms: _291  and  _292
REMARK  117  A    between atoms: _291  and  _294
REMARK  118  A    between atoms: _294  and  _295
REMARK  119  A    between atoms: _298  and  _300
REMARK  120  A    between atoms: _300  and  _301
REMARK  121  A    between atoms: _300  and  _303
REMARK  122  A    between atoms: _303  and  _304
REMARK  123  A    between atoms: _307  and  _309
REMARK  124  A    between atoms: _309  and  _310
REMARK  125  A    between atoms: _309  and  _312
REMARK  126  A    between atoms: _312  and  _313
REMARK  127  A    between atoms: _316  and  _318
REMARK  128  A    between atoms: _318  and  _319
REMARK  129  A    between atoms: _318  and  _321
REMARK  130  A    between atoms: _321  and  _322
REMARK  131  A    between atoms: _325  and  _327
REMARK  132  A    between atoms: _327  and  _328
REMARK  133  A    between atoms: _330  and  _332
REMARK  134  A    between atoms: _332  and  _333
REMARK  135  A    between atoms: _336  and  _338
REMARK  136  A    between atoms: _338  and  _339
REMARK  137  A    between atoms: _338  and  _341
REMARK  138  A    between atoms: _341  and  _342
REMARK  139  A    between atoms: _345  and  _347
REMARK  140  A    between atoms: _347  and  _348
REMARK  141  A    between atoms: _347  and  _350
REMARK  142  A    between atoms: _350  and  _351
REMARK  143  A    between atoms: _354  and  _356
REMARK  144  A    between atoms: _356  and  _357
REMARK  145  A    between atoms: _356  and  _359
REMARK  146  A    between atoms: _359  and  _360
REMARK  147  A    between atoms: _363  and  _365
REMARK  148  A    between atoms: _365  and  _366
REMARK  149  A    between atoms: _365  and  _368
REMARK  150  A    between atoms: _368  and  _369
REMARK  151  A    between atoms: _372  and  _374
REMARK  152  A    between atoms: _374  and  _375
REMARK  153  A    between atoms: _374  and  _377
REMARK  154  A    between atoms: _377  and  _378
REMARK  155  A    between atoms: _378  and  _379
REMARK  156  A    between atoms: _382  and  _384
REMARK  157  A    between atoms: _384  and  _385
REMARK  158  A    between atoms: _384  and  _387
REMARK  159  A    between atoms: _387  and  _388
REMARK  160  A    between atoms: _388  and  _389
REMARK  161  A    between atoms: _389  and  _390
REMARK  162  A    between atoms: _390  and  _391
REMARK  163  A    between atoms: _395  and  _397
REMARK  164  A    between atoms: _397  and  _398
REMARK  165  A    between atoms: _397  and  _400
REMARK  166  A    between atoms: _403  and  _405
REMARK  167  A    between atoms: _405  and  _406
REMARK  168  A    between atoms: _405  and  _408
REMARK  169  A    between atoms: _411  and  _413
REMARK  170  A    between atoms: _413  and  _414
REMARK  171  A    between atoms: _416  and  _418
REMARK  172  A    between atoms: _418  and  _419
REMARK  173  A    between atoms: _421  and  _423
REMARK  174  A    between atoms: _423  and  _424
REMARK  175  A    between atoms: _423  and  _426
REMARK  176  A    between atoms: _426  and  _427
REMARK  177  A    between atoms: _430  and  _432
REMARK  178  A    between atoms: _432  and  _433
REMARK  179  A    between atoms: _435  and  _437
REMARK  180  A    between atoms: _437  and  _438
REMARK  181  A    between atoms: _440  and  _442
REMARK  182  A    between atoms: _442  and  _443
REMARK  183  A    between atoms: _442  and  _445
REMARK  184  A    between atoms: _445  and  _446
REMARK  185  A    between atoms: _446  and  _447
REMARK  186  A    between atoms: _449  and  _451
REMARK  187  A    between atoms: _451  and  _452
REMARK  188  A    between atoms: _451  and  _454
REMARK  189  A    between atoms: _454  and  _455
REMARK  190  A    between atoms: _459  and  _460
REMARK  191  A    between atoms: _465  and  _467
REMARK  192  A    between atoms: _467  and  _468
REMARK  193  A    between atoms: _467  and  _470
REMARK  194  A    between atoms: _470  and  _471
REMARK  195  A    between atoms: _475  and  _476
REMARK  196  A    between atoms: _481  and  _483
REMARK  197  A    between atoms: _483  and  _484
REMARK  198  A    between atoms: _487  and  _489
REMARK  199  A    between atoms: _489  and  _490
REMARK  200  A    between atoms: _489  and  _492
REMARK  201  A    between atoms: _492  and  _493
REMARK  202  A    between atoms: _498  and  _500
REMARK  203  A    between atoms: _500  and  _501
REMARK  204  A    between atoms: _500  and  _503
REMARK  205  A    between atoms: _503  and  _504
REMARK  206  A    between atoms: _507  and  _509
REMARK  207  A    between atoms: _509  and  _510
REMARK  208  A    between atoms: _509  and  _512
REMARK  209  A    between atoms: _512  and  _513
REMARK  210  A    between atoms: _516  and  _518
REMARK  211  A    between atoms: _518  and  _519
REMARK  212  A    between atoms: _521  and  _523
REMARK  213  A    between atoms: _523  and  _524
REMARK  214  A    between atoms: _523  and  _526
REMARK  215  A    between atoms: _526  and  _527
REMARK  216  A    between atoms: _527  and  _528
REMARK  217  A    between atoms: _528  and  _529
REMARK  218  A    between atoms: _538  and  _540
REMARK  219  A    between atoms: _540  and  _541
REMARK  220  A    between atoms: _540  and  _543
REMARK  221  A    between atoms: _543  and  _544
REMARK                            x       y       z     vdW  Elec       q    Type
REMARK                         _______ _______ _______ _____ _____    ______ ____
ROOT
ATOM      1  O   HOH     1     -11.216  45.782   0.395  0.00  0.00    +0.000 OA
ENDROOT
TORSDOF 0
REMARK  Name = ../refined-set-2016/4m8x/4m8x_pocket.pdb
REMARK  221 active torsions:
REMARK  status: ('A' for Active; 'I' for Inactive)
REMARK    1  A    between atoms: _1  and  _3
REMARK    2  A    between atoms: _3  and  _4
REMARK    3  A    between atoms: _3  and  _6
REMARK    4  A    between atoms: _6  and  _7
REMARK    5  A    between atoms: _7  and  _8
REMARK    6  A    between atoms: _8  and  _9
REMARK    7  A    between atoms: _18  and  _20
REMARK    8  A    between atoms: _20  and  _21
REMARK    9  A    between atoms: _20  and  _23
REMARK   10  A    between atoms: _23  and  _24
REMARK   11  A    between atoms: _27  and  _29
REMARK   12  A    between atoms: _29  and  _30
REMARK   13  A    between atoms: _29  and  _32
REMARK   14  A    between atoms: _32  and  _33
REMARK   15  A    between atoms: _36  and  _38
REMARK   16  A    between atoms: _38  and  _39
REMARK   17  A    between atoms: _38  and  _41
REMARK   18  A    between atoms: _41  and  _42
REMARK   19  A    between atoms: _45  and  _47
REMARK   20  A    between atoms: _47  and  _48
REMARK   21  A    between atoms: _47  and  _50
REMARK   22  A    between atoms: _50  and  _51
REMARK   23  A    between atoms: _54  and  _56
REMARK   24  A    between atoms: _56  and  _57
REMARK   25  A    between atoms: _59  and  _61
REMARK   26  A    between atoms: _61  and  _62
REMARK   27  A    between atoms: _65  and  _67
REMARK   28  A    between atoms: _67  and  _68
REMARK   29  A    between atoms: _67  and  _70
REMARK   30  A    between atoms: _70  and  _71
REMARK   31  A    between atoms: _74  and  _76
REMARK   32  A    between atoms: _76  and  _77
REMARK   33  A    between atoms: _76  and  _79
REMARK   34  A    between atoms: _79  and  _80
REMARK   35  A    between atoms: _83  and  _85
REMARK   36  A    between atoms: _85  and  _86
REMARK   37  A    between atoms: _85  and  _88
REMARK   38  A    between atoms: _88  and  _89
REMARK   39  A    between atoms: _92  and  _94
REMARK   40  A    between atoms: _94  and  _95
REMARK   41  A    between atoms: _94  and  _97
REMARK   42  A    between atoms: _97  and  _98
REMARK   43  A    between atoms: _101  and  _103
REMARK   44  A    between atoms: _103  and  _104
REMARK   45  A    between atoms: _103  and  _106
REMARK   46  A    between atoms: _109  and  _111
REMARK   47  A    between atoms: _111  and  _112
REMARK   48  A    between atoms: _111  and  _114
REMARK   49  A    between atoms: _117  and  _119
REMARK   50  A    between atoms: _119  and  _120
REMARK   51  A    between atoms: _122  and  _124
REMARK   52  A    between atoms: _124  and  _125
REMARK   53  A    between atoms: _127  and  _129
REMARK   54  A    between atoms: _129  and  _130
REMARK   55  A    between atoms: _129  and  _132
REMARK   56  A    between atoms: _132  and  _133
REMARK   57  A    between atoms: _136  and  _138
REMARK   58  A    between atoms: _138  and  _139
REMARK   59  A    between atoms: _141  and  _143
REMARK   60  A    between atoms: _143  and  _144
REMARK   61  A    between atoms: _146  and  _148
REMARK   62  A    between atoms: _148  and  _149
REMARK   63  A    between atoms: _148  and  _151
REMARK   64  A    between atoms: _151  and  _152
REMARK   65  A    between atoms: _158  and  _160
REMARK   66  A    between atoms: _160  and  _161
REMARK   67  A    between atoms: _160  and  _163
REMARK   68  A    between atoms: _163  and  _164
REMARK   69  A    between atoms: _164  and  _165
REMARK   70  A    between atoms: _167  and  _169
REMARK   71  A    between atoms: _169  and  _170
REMARK   72  A    between atoms: _169  and  _172
REMARK   73  A    between atoms: _172  and  _173
REMARK   74  A    between atoms: _176  and  _178
REMARK   75  A    between atoms: _178  and  _179
REMARK   76  A    between atoms: _178  and  _181
REMARK   77  A    between atoms: _181  and  _182
REMARK   78  A    between atoms: _186  and  _187
REMARK   79  A    between atoms: _192  and  _194
REMARK   80  A    between atoms: _194  and  _195
REMARK   81  A    between atoms: _198  and  _200
REMARK   82  A    between atoms: _200  and  _201
REMARK   83  A    between atoms: _200  and  _203
REMARK   84  A    between atoms: _203  and  _204
REMARK   85  A    between atoms: _209  and  _211
REMARK   86  A    between atoms: _211  and  _212
REMARK   87  A    between atoms: _211  and  _214
REMARK   88  A    between atoms: _214  and  _215
REMARK   89  A    between atoms: _218  and  _220
REMARK   90  A    between atoms: _220  and  _221
REMARK   91  A    between atoms: _220  and  _223
REMARK   92  A    between atoms: _223  and  _224
REMARK   93  A    between atoms: _227  and  _229
REMARK   94  A    between atoms: _229  and  _230
REMARK   95  A    between atoms: _232  and  _234
REMARK   96  A    between atoms: _234  and  _235
REMARK   97  A    between atoms: _234  and  _237
REMARK   98  A    between atoms: _237  and  _238
REMARK   99  A    between atoms: _238  and  _239
REMARK  100  A    between atoms: _239  and  _240
REMARK  101  A    between atoms: _249  and  _251
REMARK  102  A    between atoms: _251  and  _252
REMARK  103  A    between atoms: _251  and  _254
REMARK  104  A    between atoms: _254  and  _255
REMARK  105  A    between atoms: _260  and  _262
REMARK  106  A    between atoms: _262  and  _263
REMARK  107  A    between atoms: _262  and  _265
REMARK  108  A    between atoms: _265  and  _266
REMARK  109  A    between atoms: _266  and  _267
REMARK  110  A    between atoms: _267  and  _268
REMARK  111  A    between atoms: _277  and  _279
REMARK  112  A    between atoms: _279  and  _280
REMARK  113  A    between atoms: _279  and  _282
REMARK  114  A    between atoms: _282  and  _283
REMARK  115  A    between atoms: _289  and  _291
REMARK  116  A    between atoms: _291  and  _292
REMARK  117  A    between atoms: _291  and  _294
REMARK  118  A    between atoms: _294  and  _295
REMARK  119  A    between atoms: _298  and  _300
REMARK  120  A    between atoms: _300  and  _301
REMARK  121  A    between atoms: _300  and  _303
REMARK  122  A    between atoms: _303  and  _304
REMARK  123  A    between atoms: _307  and  _309
REMARK  124  A    between atoms: _309  and  _310
REMARK  125  A    between atoms: _309  and  _312
REMARK  126  A    between atoms: _312  and  _313
REMARK  127  A    between atoms: _316  and  _318
REMARK  128  A    between atoms: _318  and  _319
REMARK  129  A    between atoms: _318  and  _321
REMARK  130  A    between atoms: _321  and  _322
REMARK  131  A    between atoms: _325  and  _327
REMARK  132  A    between atoms: _327  and  _328
REMARK  133  A    between atoms: _330  and  _332
REMARK  134  A    between atoms: _332  and  _333
REMARK  135  A    between atoms: _336  and  _338
REMARK  136  A    between atoms: _338  and  _339
REMARK  137  A    between atoms: _338  and  _341
REMARK  138  A    between atoms: _341  and  _342
REMARK  139  A    between atoms: _345  and  _347
REMARK  140  A    between atoms: _347  and  _348
REMARK  141  A    between atoms: _347  and  _350
REMARK  142  A    between atoms: _350  and  _351
REMARK  143  A    between atoms: _354  and  _356
REMARK  144  A    between atoms: _356  and  _357
REMARK  145  A    between atoms: _356  and  _359
REMARK  146  A    between atoms: _359  and  _360
REMARK  147  A    between atoms: _363  and  _365
REMARK  148  A    between atoms: _365  and  _366
REMARK  149  A    between atoms: _365  and  _368
REMARK  150  A    between atoms: _368  and  _369
REMARK  151  A    between atoms: _372  and  _374
REMARK  152  A    between atoms: _374  and  _375
REMARK  153  A    between atoms: _374  and  _377
REMARK  154  A    between atoms: _377  and  _378
REMARK  155  A    between atoms: _378  and  _379
REMARK  156  A    between atoms: _382  and  _384
REMARK  157  A    between atoms: _384  and  _385
REMARK  158  A    between atoms: _384  and  _387
REMARK  159  A    between atoms: _387  and  _388
REMARK  160  A    between atoms: _388  and  _389
REMARK  161  A    between atoms: _389  and  _390
REMARK  162  A    between atoms: _390  and  _391
REMARK  163  A    between atoms: _395  and  _397
REMARK  164  A    between atoms: _397  and  _398
REMARK  165  A    between atoms: _397  and  _400
REMARK  166  A    between atoms: _403  and  _405
REMARK  167  A    between atoms: _405  and  _406
REMARK  168  A    between atoms: _405  and  _408
REMARK  169  A    between atoms: _411  and  _413
REMARK  170  A    between atoms: _413  and  _414
REMARK  171  A    between atoms: _416  and  _418
REMARK  172  A    between atoms: _418  and  _419
REMARK  173  A    between atoms: _421  and  _423
REMARK  174  A    between atoms: _423  and  _424
REMARK  175  A    between atoms: _423  and  _426
REMARK  176  A    between atoms: _426  and  _427
REMARK  177  A    between atoms: _430  and  _432
REMARK  178  A    between atoms: _432  and  _433
REMARK  179  A    between atoms: _435  and  _437
REMARK  180  A    between atoms: _437  and  _438
REMARK  181  A    between atoms: _440  and  _442
REMARK  182  A    between atoms: _442  and  _443
REMARK  183  A    between atoms: _442  and  _445
REMARK  184  A    between atoms: _445  and  _446
REMARK  185  A    between atoms: _446  and  _447
REMARK  186  A    between atoms: _449  and  _451
REMARK  187  A    between atoms: _451  and  _452
REMARK  188  A    between atoms: _451  and  _454
REMARK  189  A    between atoms: _454  and  _455
REMARK  190  A    between atoms: _459  and  _460
REMARK  191  A    between atoms: _465  and  _467
REMARK  192  A    between atoms: _467  and  _468
REMARK  193  A    between atoms: _467  and  _470
REMARK  194  A    between atoms: _470  and  _471
REMARK  195  A    between atoms: _475  and  _476
REMARK  196  A    between atoms: _481  and  _483
REMARK  197  A    between atoms: _483  and  _484
REMARK  198  A    between atoms: _487  and  _489
REMARK  199  A    between atoms: _489  and  _490
REMARK  200  A    between atoms: _489  and  _492
REMARK  201  A    between atoms: _492  and  _493
REMARK  202  A    between atoms: _498  and  _500
REMARK  203  A    between atoms: _500  and  _501
REMARK  204  A    between atoms: _500  and  _503
REMARK  205  A    between atoms: _503  and  _504
REMARK  206  A    between atoms: _507  and  _509
REMARK  207  A    between atoms: _509  and  _510
REMARK  208  A    between atoms: _509  and  _512
REMARK  209  A    between atoms: _512  and  _513
REMARK  210  A    between atoms: _516  and  _518
REMARK  211  A    between atoms: _518  and  _519
REMARK  212  A    between atoms: _521  and  _523
REMARK  213  A    between atoms: _523  and  _524
REMARK  214  A    between atoms: _523  and  _526
REMARK  215  A    between atoms: _526  and  _527
REMARK  216  A    between atoms: _527  and  _528
REMARK  217  A    between atoms: _528  and  _529
REMARK  218  A    between atoms: _538  and  _540
REMARK  219  A    between atoms: _540  and  _541
REMARK  220  A    between atoms: _540  and  _543
REMARK  221  A    between atoms: _543  and  _544
REMARK                            x       y       z     vdW  Elec       q    Type
REMARK                         _______ _______ _______ _____ _____    ______ ____
ROOT
ATOM      1  O   HOH     1     -10.995  49.062  -1.262  0.00  0.00    +0.000 OA
ENDROOT
TORSDOF 0
REMARK  Name = ../refined-set-2016/4m8x/4m8x_pocket.pdb
REMARK  221 active torsions:
REMARK  status: ('A' for Active; 'I' for Inactive)
REMARK    1  A    between atoms: _1  and  _3
REMARK    2  A    between atoms: _3  and  _4
REMARK    3  A    between atoms: _3  and  _6
REMARK    4  A    between atoms: _6  and  _7
REMARK    5  A    between atoms: _7  and  _8
REMARK    6  A    between atoms: _8  and  _9
REMARK    7  A    between atoms: _18  and  _20
REMARK    8  A    between atoms: _20  and  _21
REMARK    9  A    between atoms: _20  and  _23
REMARK   10  A    between atoms: _23  and  _24
REMARK   11  A    between atoms: _27  and  _29
REMARK   12  A    between atoms: _29  and  _30
REMARK   13  A    between atoms: _29  and  _32
REMARK   14  A    between atoms: _32  and  _33
REMARK   15  A    between atoms: _36  and  _38
REMARK   16  A    between atoms: _38  and  _39
REMARK   17  A    between atoms: _38  and  _41
REMARK   18  A    between atoms: _41  and  _42
REMARK   19  A    between atoms: _45  and  _47
REMARK   20  A    between atoms: _47  and  _48
REMARK   21  A    between atoms: _47  and  _50
REMARK   22  A    between atoms: _50  and  _51
REMARK   23  A    between atoms: _54  and  _56
REMARK   24  A    between atoms: _56  and  _57
REMARK   25  A    between atoms: _59  and  _61
REMARK   26  A    between atoms: _61  and  _62
REMARK   27  A    between atoms: _65  and  _67
REMARK   28  A    between atoms: _67  and  _68
REMARK   29  A    between atoms: _67  and  _70
REMARK   30  A    between atoms: _70  and  _71
REMARK   31  A    between atoms: _74  and  _76
REMARK   32  A    between atoms: _76  and  _77
REMARK   33  A    between atoms: _76  and  _79
REMARK   34  A    between atoms: _79  and  _80
REMARK   35  A    between atoms: _83  and  _85
REMARK   36  A    between atoms: _85  and  _86
REMARK   37  A    between atoms: _85  and  _88
REMARK   38  A    between atoms: _88  and  _89
REMARK   39  A    between atoms: _92  and  _94
REMARK   40  A    between atoms: _94  and  _95
REMARK   41  A    between atoms: _94  and  _97
REMARK   42  A    between atoms: _97  and  _98
REMARK   43  A    between atoms: _101  and  _103
REMARK   44  A    between atoms: _103  and  _104
REMARK   45  A    between atoms: _103  and  _106
REMARK   46  A    between atoms: _109  and  _111
REMARK   47  A    between atoms: _111  and  _112
REMARK   48  A    between atoms: _111  and  _114
REMARK   49  A    between atoms: _117  and  _119
REMARK   50  A    between atoms: _119  and  _120
REMARK   51  A    between atoms: _122  and  _124
REMARK   52  A    between atoms: _124  and  _125
REMARK   53  A    between atoms: _127  and  _129
REMARK   54  A    between atoms: _129  and  _130
REMARK   55  A    between atoms: _129  and  _132
REMARK   56  A    between atoms: _132  and  _133
REMARK   57  A    between atoms: _136  and  _138
REMARK   58  A    between atoms: _138  and  _139
REMARK   59  A    between atoms: _141  and  _143
REMARK   60  A    between atoms: _143  and  _144
REMARK   61  A    between atoms: _146  and  _148
REMARK   62  A    between atoms: _148  and  _149
REMARK   63  A    between atoms: _148  and  _151
REMARK   64  A    between atoms: _151  and  _152
REMARK   65  A    between atoms: _158  and  _160
REMARK   66  A    between atoms: _160  and  _161
REMARK   67  A    between atoms: _160  and  _163
REMARK   68  A    between atoms: _163  and  _164
REMARK   69  A    between atoms: _164  and  _165
REMARK   70  A    between atoms: _167  and  _169
REMARK   71  A    between atoms: _169  and  _170
REMARK   72  A    between atoms: _169  and  _172
REMARK   73  A    between atoms: _172  and  _173
REMARK   74  A    between atoms: _176  and  _178
REMARK   75  A    between atoms: _178  and  _179
REMARK   76  A    between atoms: _178  and  _181
REMARK   77  A    between atoms: _181  and  _182
REMARK   78  A    between atoms: _186  and  _187
REMARK   79  A    between atoms: _192  and  _194
REMARK   80  A    between atoms: _194  and  _195
REMARK   81  A    between atoms: _198  and  _200
REMARK   82  A    between atoms: _200  and  _201
REMARK   83  A    between atoms: _200  and  _203
REMARK   84  A    between atoms: _203  and  _204
REMARK   85  A    between atoms: _209  and  _211
REMARK   86  A    between atoms: _211  and  _212
REMARK   87  A    between atoms: _211  and  _214
REMARK   88  A    between atoms: _214  and  _215
REMARK   89  A    between atoms: _218  and  _220
REMARK   90  A    between atoms: _220  and  _221
REMARK   91  A    between atoms: _220  and  _223
REMARK   92  A    between atoms: _223  and  _224
REMARK   93  A    between atoms: _227  and  _229
REMARK   94  A    between atoms: _229  and  _230
REMARK   95  A    between atoms: _232  and  _234
REMARK   96  A    between atoms: _234  and  _235
REMARK   97  A    between atoms: _234  and  _237
REMARK   98  A    between atoms: _237  and  _238
REMARK   99  A    between atoms: _238  and  _239
REMARK  100  A    between atoms: _239  and  _240
REMARK  101  A    between atoms: _249  and  _251
REMARK  102  A    between atoms: _251  and  _252
REMARK  103  A    between atoms: _251  and  _254
REMARK  104  A    between atoms: _254  and  _255
REMARK  105  A    between atoms: _260  and  _262
REMARK  106  A    between atoms: _262  and  _263
REMARK  107  A    between atoms: _262  and  _265
REMARK  108  A    between atoms: _265  and  _266
REMARK  109  A    between atoms: _266  and  _267
REMARK  110  A    between atoms: _267  and  _268
REMARK  111  A    between atoms: _277  and  _279
REMARK  112  A    between atoms: _279  and  _280
REMARK  113  A    between atoms: _279  and  _282
REMARK  114  A    between atoms: _282  and  _283
REMARK  115  A    between atoms: _289  and  _291
REMARK  116  A    between atoms: _291  and  _292
REMARK  117  A    between atoms: _291  and  _294
REMARK  118  A    between atoms: _294  and  _295
REMARK  119  A    between atoms: _298  and  _300
REMARK  120  A    between atoms: _300  and  _301
REMARK  121  A    between atoms: _300  and  _303
REMARK  122  A    between atoms: _303  and  _304
REMARK  123  A    between atoms: _307  and  _309
REMARK  124  A    between atoms: _309  and  _310
REMARK  125  A    between atoms: _309  and  _312
REMARK  126  A    between atoms: _312  and  _313
REMARK  127  A    between atoms: _316  and  _318
REMARK  128  A    between atoms: _318  and  _319
REMARK  129  A    between atoms: _318  and  _321
REMARK  130  A    between atoms: _321  and  _322
REMARK  131  A    between atoms: _325  and  _327
REMARK  132  A    between atoms: _327  and  _328
REMARK  133  A    between atoms: _330  and  _332
REMARK  134  A    between atoms: _332  and  _333
REMARK  135  A    between atoms: _336  and  _338
REMARK  136  A    between atoms: _338  and  _339
REMARK  137  A    between atoms: _338  and  _341
REMARK  138  A    between atoms: _341  and  _342
REMARK  139  A    between atoms: _345  and  _347
REMARK  140  A    between atoms: _347  and  _348
REMARK  141  A    between atoms: _347  and  _350
REMARK  142  A    between atoms: _350  and  _351
REMARK  143  A    between atoms: _354  and  _356
REMARK  144  A    between atoms: _356  and  _357
REMARK  145  A    between atoms: _356  and  _359
REMARK  146  A    between atoms: _359  and  _360
REMARK  147  A    between atoms: _363  and  _365
REMARK  148  A    between atoms: _365  and  _366
REMARK  149  A    between atoms: _365  and  _368
REMARK  150  A    between atoms: _368  and  _369
REMARK  151  A    between atoms: _372  and  _374
REMARK  152  A    between atoms: _374  and  _375
REMARK  153  A    between atoms: _374  and  _377
REMARK  154  A    between atoms: _377  and  _378
REMARK  155  A    between atoms: _378  and  _379
REMARK  156  A    between atoms: _382  and  _384
REMARK  157  A    between atoms: _384  and  _385
REMARK  158  A    between atoms: _384  and  _387
REMARK  159  A    between atoms: _387  and  _388
REMARK  160  A    between atoms: _388  and  _389
REMARK  161  A    between atoms: _389  and  _390
REMARK  162  A    between atoms: _390  and  _391
REMARK  163  A    between atoms: _395  and  _397
REMARK  164  A    between atoms: _397  and  _398
REMARK  165  A    between atoms: _397  and  _400
REMARK  166  A    between atoms: _403  and  _405
REMARK  167  A    between atoms: _405  and  _406
REMARK  168  A    between atoms: _405  and  _408
REMARK  169  A    between atoms: _411  and  _413
REMARK  170  A    between atoms: _413  and  _414
REMARK  171  A    between atoms: _416  and  _418
REMARK  172  A    between atoms: _418  and  _419
REMARK  173  A    between atoms: _421  and  _423
REMARK  174  A    between atoms: _423  and  _424
REMARK  175  A    between atoms: _423  and  _426
REMARK  176  A    between atoms: _426  and  _427
REMARK  177  A    between atoms: _430  and  _432
REMARK  178  A    between atoms: _432  and  _433
REMARK  179  A    between atoms: _435  and  _437
REMARK  180  A    between atoms: _437  and  _438
REMARK  181  A    between atoms: _440  and  _442
REMARK  182  A    between atoms: _442  and  _443
REMARK  183  A    between atoms: _442  and  _445
REMARK  184  A    between atoms: _445  and  _446
REMARK  185  A    between atoms: _446  and  _447
REMARK  186  A    between atoms: _449  and  _451
REMARK  187  A    between atoms: _451  and  _452
REMARK  188  A    between atoms: _451  and  _454
REMARK  189  A    between atoms: _454  and  _455
REMARK  190  A    between atoms: _459  and  _460
REMARK  191  A    between atoms: _465  and  _467
REMARK  192  A    between atoms: _467  and  _468
REMARK  193  A    between atoms: _467  and  _470
REMARK  194  A    between atoms: _470  and  _471
REMARK  195  A    between atoms: _475  and  _476
REMARK  196  A    between atoms: _481  and  _483
REMARK  197  A    between atoms: _483  and  _484
REMARK  198  A    between atoms: _487  and  _489
REMARK  199  A    between atoms: _489  and  _490
REMARK  200  A    between atoms: _489  and  _492
REMARK  201  A    between atoms: _492  and  _493
REMARK  202  A    between atoms: _498  and  _500
REMARK  203  A    between atoms: _500  and  _501
REMARK  204  A    between atoms: _500  and  _503
REMARK  205  A    between atoms: _503  and  _504
REMARK  206  A    between atoms: _507  and  _509
REMARK  207  A    between atoms: _509  and  _510
REMARK  208  A    between atoms: _509  and  _512
REMARK  209  A    between atoms: _512  and  _513
REMARK  210  A    between atoms: _516  and  _518
REMARK  211  A    between atoms: _518  and  _519
REMARK  212  A    between atoms: _521  and  _523
REMARK  213  A    between atoms: _523  and  _524
REMARK  214  A    between atoms: _523  and  _526
REMARK  215  A    between atoms: _526  and  _527
REMARK  216  A    between atoms: _527  and  _528
REMARK  217  A    between atoms: _528  and  _529
REMARK  218  A    between atoms: _538  and  _540
REMARK  219  A    between atoms: _540  and  _541
REMARK  220  A    between atoms: _540  and  _543
REMARK  221  A    between atoms: _543  and  _544
REMARK                            x       y       z     vdW  Elec       q    Type
REMARK                         _______ _______ _______ _____ _____    ______ ____
ROOT
ATOM      1  O   HOH     1     -11.073  57.773   9.088  0.00  0.00    +0.000 OA
ENDROOT
TORSDOF 0
