REMARK  Name = ../refined-set-2016/1m4h/1m4h_pocket.pdb
REMARK  293 active torsions:
REMARK  status: ('A' for Active; 'I' for Inactive)
REMARK    1  A    between atoms: _1  and  _3
REMARK    2  A    between atoms: _3  and  _4
REMARK    3  A    between atoms: _3  and  _6
REMARK    4  A    between atoms: _6  and  _7
REMARK    5  A    between atoms: _7  and  _8
REMARK    6  A    between atoms: _8  and  _9
REMARK    7  A    between atoms: _9  and  _10
REMARK    8  A    between atoms: _14  and  _16
REMARK    9  A    between atoms: _16  and  _17
REMARK   10  A    between atoms: _16  and  _19
REMARK   11  A    between atoms: _19  and  _20
REMARK   12  A    between atoms: _22  and  _24
REMARK   13  A    between atoms: _24  and  _25
REMARK   14  A    between atoms: _27  and  _29
REMARK   15  A    between atoms: _29  and  _30
REMARK   16  A    between atoms: _29  and  _32
REMARK   17  A    between atoms: _32  and  _33
REMARK   18  A    between atoms: _33  and  _34
REMARK   19  A    between atoms: _39  and  _41
REMARK   20  A    between atoms: _41  and  _42
REMARK   21  A    between atoms: _44  and  _46
REMARK   22  A    between atoms: _46  and  _47
REMARK   23  A    between atoms: _46  and  _49
REMARK   24  A    between atoms: _49  and  _50
REMARK   25  A    between atoms: _55  and  _56
REMARK   26  A    between atoms: _58  and  _60
REMARK   27  A    between atoms: _60  and  _61
REMARK   28  A    between atoms: _60  and  _63
REMARK   29  A    between atoms: _63  and  _64
REMARK   30  A    between atoms: _67  and  _69
REMARK   31  A    between atoms: _69  and  _70
REMARK   32  A    between atoms: _69  and  _72
REMARK   33  A    between atoms: _75  and  _77
REMARK   34  A    between atoms: _77  and  _78
REMARK   35  A    between atoms: _77  and  _80
REMARK   36  A    between atoms: _80  and  _81
REMARK   37  A    between atoms: _84  and  _86
REMARK   38  A    between atoms: _86  and  _87
REMARK   39  A    between atoms: _86  and  _89
REMARK   40  A    between atoms: _89  and  _90
REMARK   41  A    between atoms: _93  and  _95
REMARK   42  A    between atoms: _95  and  _96
REMARK   43  A    between atoms: _98  and  _100
REMARK   44  A    between atoms: _100  and  _101
REMARK   45  A    between atoms: _100  and  _103
REMARK   46  A    between atoms: _103  and  _104
REMARK   47  A    between atoms: _106  and  _108
REMARK   48  A    between atoms: _108  and  _109
REMARK   49  A    between atoms: _108  and  _111
REMARK   50  A    between atoms: _111  and  _112
REMARK   51  A    between atoms: _114  and  _116
REMARK   52  A    between atoms: _116  and  _117
REMARK   53  A    between atoms: _116  and  _119
REMARK   54  A    between atoms: _119  and  _120
REMARK   55  A    between atoms: _125  and  _127
REMARK   56  A    between atoms: _127  and  _128
REMARK   57  A    between atoms: _127  and  _130
REMARK   58  A    between atoms: _130  and  _131
REMARK   59  A    between atoms: _136  and  _137
REMARK   60  A    between atoms: _139  and  _141
REMARK   61  A    between atoms: _141  and  _142
REMARK   62  A    between atoms: _141  and  _144
REMARK   63  A    between atoms: _148  and  _149
REMARK   64  A    between atoms: _154  and  _156
REMARK   65  A    between atoms: _156  and  _157
REMARK   66  A    between atoms: _156  and  _159
REMARK   67  A    between atoms: _159  and  _160
REMARK   68  A    between atoms: _165  and  _166
REMARK   69  A    between atoms: _168  and  _170
REMARK   70  A    between atoms: _170  and  _171
REMARK   71  A    between atoms: _170  and  _173
REMARK   72  A    between atoms: _173  and  _174
REMARK   73  A    between atoms: _177  and  _179
REMARK   74  A    between atoms: _179  and  _180
REMARK   75  A    between atoms: _179  and  _182
REMARK   76  A    between atoms: _182  and  _183
REMARK   77  A    between atoms: _183  and  _184
REMARK   78  A    between atoms: _189  and  _191
REMARK   79  A    between atoms: _191  and  _192
REMARK   80  A    between atoms: _194  and  _196
REMARK   81  A    between atoms: _196  and  _197
REMARK   82  A    between atoms: _196  and  _199
REMARK   83  A    between atoms: _199  and  _200
REMARK   84  A    between atoms: _200  and  _201
REMARK   85  A    between atoms: _201  and  _202
REMARK   86  A    between atoms: _202  and  _203
REMARK   87  A    between atoms: _207  and  _209
REMARK   88  A    between atoms: _209  and  _210
REMARK   89  A    between atoms: _209  and  _212
REMARK   90  A    between atoms: _212  and  _213
REMARK   91  A    between atoms: _223  and  _225
REMARK   92  A    between atoms: _225  and  _226
REMARK   93  A    between atoms: _225  and  _228
REMARK   94  A    between atoms: _228  and  _229
REMARK   95  A    between atoms: _232  and  _234
REMARK   96  A    between atoms: _234  and  _235
REMARK   97  A    between atoms: _234  and  _237
REMARK   98  A    between atoms: _237  and  _238
REMARK   99  A    between atoms: _238  and  _239
REMARK  100  A    between atoms: _239  and  _240
REMARK  101  A    between atoms: _240  and  _241
REMARK  102  A    between atoms: _245  and  _247
REMARK  103  A    between atoms: _247  and  _248
REMARK  104  A    between atoms: _247  and  _250
REMARK  105  A    between atoms: _250  and  _251
REMARK  106  A    between atoms: _257  and  _259
REMARK  107  A    between atoms: _259  and  _260
REMARK  108  A    between atoms: _259  and  _262
REMARK  109  A    between atoms: _262  and  _263
REMARK  110  A    between atoms: _269  and  _271
REMARK  111  A    between atoms: _271  and  _272
REMARK  112  A    between atoms: _271  and  _274
REMARK  113  A    between atoms: _274  and  _275
REMARK  114  A    between atoms: _278  and  _280
REMARK  115  A    between atoms: _280  and  _281
REMARK  116  A    between atoms: _280  and  _283
REMARK  117  A    between atoms: _283  and  _284
REMARK  118  A    between atoms: _286  and  _288
REMARK  119  A    between atoms: _288  and  _289
REMARK  120  A    between atoms: _288  and  _291
REMARK  121  A    between atoms: _291  and  _292
REMARK  122  A    between atoms: _302  and  _304
REMARK  123  A    between atoms: _304  and  _305
REMARK  124  A    between atoms: _307  and  _309
REMARK  125  A    between atoms: _309  and  _310
REMARK  126  A    between atoms: _309  and  _312
REMARK  127  A    between atoms: _312  and  _313
REMARK  128  A    between atoms: _316  and  _318
REMARK  129  A    between atoms: _318  and  _319
REMARK  130  A    between atoms: _318  and  _321
REMARK  131  A    between atoms: _321  and  _322
REMARK  132  A    between atoms: _325  and  _327
REMARK  133  A    between atoms: _327  and  _328
REMARK  134  A    between atoms: _327  and  _330
REMARK  135  A    between atoms: _330  and  _331
REMARK  136  A    between atoms: _334  and  _336
REMARK  137  A    between atoms: _336  and  _337
REMARK  138  A    between atoms: _340  and  _342
REMARK  139  A    between atoms: _342  and  _343
REMARK  140  A    between atoms: _342  and  _345
REMARK  141  A    between atoms: _345  and  _346
REMARK  142  A    between atoms: _351  and  _352
REMARK  143  A    between atoms: _354  and  _356
REMARK  144  A    between atoms: _356  and  _357
REMARK  145  A    between atoms: _360  and  _362
REMARK  146  A    between atoms: _362  and  _363
REMARK  147  A    between atoms: _362  and  _365
REMARK  148  A    between atoms: _365  and  _366
REMARK  149  A    between atoms: _366  and  _367
REMARK  150  A    between atoms: _370  and  _372
REMARK  151  A    between atoms: _372  and  _373
REMARK  152  A    between atoms: _372  and  _375
REMARK  153  A    between atoms: _375  and  _376
REMARK  154  A    between atoms: _379  and  _381
REMARK  155  A    between atoms: _381  and  _382
REMARK  156  A    between atoms: _385  and  _387
REMARK  157  A    between atoms: _387  and  _388
REMARK  158  A    between atoms: _387  and  _390
REMARK  159  A    between atoms: _390  and  _391
REMARK  160  A    between atoms: _391  and  _392
REMARK  161  A    between atoms: _392  and  _393
REMARK  162  A    between atoms: _403  and  _404
REMARK  163  A    between atoms: _409  and  _411
REMARK  164  A    between atoms: _411  and  _412
REMARK  165  A    between atoms: _411  and  _414
REMARK  166  A    between atoms: _414  and  _415
REMARK  167  A    between atoms: _418  and  _420
REMARK  168  A    between atoms: _420  and  _421
REMARK  169  A    between atoms: _420  and  _423
REMARK  170  A    between atoms: _423  and  _424
REMARK  171  A    between atoms: _427  and  _429
REMARK  172  A    between atoms: _429  and  _430
REMARK  173  A    between atoms: _429  and  _432
REMARK  174  A    between atoms: _432  and  _433
REMARK  175  A    between atoms: _433  and  _434
REMARK  176  A    between atoms: _434  and  _435
REMARK  177  A    between atoms: _444  and  _446
REMARK  178  A    between atoms: _446  and  _447
REMARK  179  A    between atoms: _446  and  _449
REMARK  180  A    between atoms: _449  and  _450
REMARK  181  A    between atoms: _460  and  _462
REMARK  182  A    between atoms: _462  and  _463
REMARK  183  A    between atoms: _462  and  _465
REMARK  184  A    between atoms: _465  and  _466
REMARK  185  A    between atoms: _471  and  _472
REMARK  186  A    between atoms: _474  and  _476
REMARK  187  A    between atoms: _476  and  _477
REMARK  188  A    between atoms: _476  and  _479
REMARK  189  A    between atoms: _479  and  _480
REMARK  190  A    between atoms: _480  and  _481
REMARK  191  A    between atoms: _481  and  _482
REMARK  192  A    between atoms: _482  and  _483
REMARK  193  A    between atoms: _487  and  _489
REMARK  194  A    between atoms: _489  and  _490
REMARK  195  A    between atoms: _489  and  _492
REMARK  196  A    between atoms: _492  and  _493
REMARK  197  A    between atoms: _496  and  _498
REMARK  198  A    between atoms: _498  and  _499
REMARK  199  A    between atoms: _498  and  _501
REMARK  200  A    between atoms: _504  and  _506
REMARK  201  A    between atoms: _506  and  _507
REMARK  202  A    between atoms: _506  and  _509
REMARK  203  A    between atoms: _509  and  _510
REMARK  204  A    between atoms: _513  and  _515
REMARK  205  A    between atoms: _515  and  _516
REMARK  206  A    between atoms: _515  and  _518
REMARK  207  A    between atoms: _518  and  _519
REMARK  208  A    between atoms: _521  and  _523
REMARK  209  A    between atoms: _523  and  _524
REMARK  210  A    between atoms: _526  and  _528
REMARK  211  A    between atoms: _528  and  _529
REMARK  212  A    between atoms: _528  and  _531
REMARK  213  A    between atoms: _531  and  _532
REMARK  214  A    between atoms: _535  and  _537
REMARK  215  A    between atoms: _537  and  _538
REMARK  216  A    between atoms: _537  and  _540
REMARK  217  A    between atoms: _540  and  _541
REMARK  218  A    between atoms: _544  and  _546
REMARK  219  A    between atoms: _546  and  _547
REMARK  220  A    between atoms: _546  and  _549
REMARK  221  A    between atoms: _549  and  _550
REMARK  222  A    between atoms: _555  and  _557
REMARK  223  A    between atoms: _557  and  _558
REMARK  224  A    between atoms: _557  and  _560
REMARK  225  A    between atoms: _560  and  _561
REMARK  226  A    between atoms: _564  and  _566
REMARK  227  A    between atoms: _566  and  _567
REMARK  228  A    between atoms: _566  and  _569
REMARK  229  A    between atoms: _569  and  _570
REMARK  230  A    between atoms: _570  and  _571
REMARK  231  A    between atoms: _571  and  _572
REMARK  232  A    between atoms: _581  and  _583
REMARK  233  A    between atoms: _583  and  _584
REMARK  234  A    between atoms: _586  and  _588
REMARK  235  A    between atoms: _588  and  _589
REMARK  236  A    between atoms: _588  and  _591
REMARK  237  A    between atoms: _591  and  _592
REMARK  238  A    between atoms: _592  and  _593
REMARK  239  A    between atoms: _596  and  _598
REMARK  240  A    between atoms: _598  and  _599
REMARK  241  A    between atoms: _598  and  _601
REMARK  242  A    between atoms: _601  and  _602
REMARK  243  A    between atoms: _602  and  _603
REMARK  244  A    between atoms: _603  and  _604
REMARK  245  A    between atoms: _614  and  _615
REMARK  246  A    between atoms: _620  and  _622
REMARK  247  A    between atoms: _622  and  _623
REMARK  248  A    between atoms: _622  and  _625
REMARK  249  A    between atoms: _628  and  _630
REMARK  250  A    between atoms: _630  and  _631
REMARK  251  A    between atoms: _630  and  _633
REMARK  252  A    between atoms: _633  and  _634
REMARK  253  A    between atoms: _634  and  _635
REMARK  254  A    between atoms: _638  and  _640
REMARK  255  A    between atoms: _640  and  _641
REMARK  256  A    between atoms: _640  and  _643
REMARK  257  A    between atoms: _643  and  _644
REMARK  258  A    between atoms: _644  and  _645
REMARK  259  A    between atoms: _645  and  _646
REMARK  260  A    between atoms: _646  and  _647
REMARK  261  A    between atoms: _651  and  _653
REMARK  262  A    between atoms: _653  and  _654
REMARK  263  A    between atoms: _657  and  _659
REMARK  264  A    between atoms: _659  and  _660
REMARK  265  A    between atoms: _659  and  _662
REMARK  266  A    between atoms: _662  and  _663
REMARK  267  A    between atoms: _665  and  _667
REMARK  268  A    between atoms: _667  and  _668
REMARK  269  A    between atoms: _667  and  _670
REMARK  270  A    between atoms: _670  and  _671
REMARK  271  A    between atoms: _671  and  _672
REMARK  272  A    between atoms: _677  and  _679
REMARK  273  A    between atoms: _679  and  _680
REMARK  274  A    between atoms: _679  and  _682
REMARK  275  A    between atoms: _682  and  _683
REMARK  276  A    between atoms: _685  and  _687
REMARK  277  A    between atoms: _687  and  _688
REMARK  278  A    between atoms: _687  and  _690
REMARK  279  A    between atoms: _690  and  _691
REMARK  280  A    between atoms: _694  and  _696
REMARK  281  A    between atoms: _696  and  _697
REMARK  282  A    between atoms: _696  and  _699
REMARK  283  A    between atoms: _699  and  _700
REMARK  284  A    between atoms: _703  and  _705
REMARK  285  A    between atoms: _705  and  _706
REMARK  286  A    between atoms: _705  and  _708
REMARK  287  A    between atoms: _711  and  _713
REMARK  288  A    between atoms: _713  and  _714
REMARK  289  A    between atoms: _716  and  _718
REMARK  290  A    between atoms: _718  and  _719
REMARK  291  A    between atoms: _722  and  _724
REMARK  292  A    between atoms: _724  and  _725
REMARK  293  A    between atoms: _724  and  _727
REMARK                            x       y       z     vdW  Elec       q    Type
REMARK                         _______ _______ _______ _____ _____    ______ ____
ROOT
ATOM      1  CA  GLN A   4      10.352  34.337  19.113  0.00  0.00    +0.149 C 
ENDROOT
BRANCH   1   4
ATOM      2  C   GLY A   3       9.685  32.895  20.962  0.00  0.00    +0.243 C 
ATOM      3  O   GLY A   3      10.459  32.010  20.593  0.00  0.00    -0.273 OA
ATOM      4  N   GLN A   4       9.561  34.055  20.318  0.00  0.00    -0.297 N 
ATOM      5  H   GLN A   4       8.895  34.770  20.673  0.00  0.00    +0.150 HD
BRANCH   2   6
ATOM      6  CA  GLY A   3       8.831  32.670  22.200  0.00  0.00    +0.176 C 
BRANCH   6   9
ATOM      7  C   SER A   2       9.141  34.620  23.597  0.00  0.00    +0.243 C 
ATOM      8  O   SER A   2      10.369  34.422  23.667  0.00  0.00    -0.273 OA
ATOM      9  N   GLY A   3       8.321  33.841  22.897  0.00  0.00    -0.295 N 
ATOM     10  H   GLY A   3       7.308  34.071  22.848  0.00  0.00    +0.150 HD
BRANCH   7  11
ATOM     11  CA  SER A   2       8.497  35.801  24.320  0.00  0.00    +0.178 C 
BRANCH  11  13
ATOM     12  C   LYS A   1       7.793  37.010  22.316  0.00  0.00    +0.238 C 
ATOM     13  N   SER A   2       7.522  36.571  23.544  0.00  0.00    -0.295 N 
ATOM     14  H   SER A   2       6.593  36.780  23.963  0.00  0.00    +0.150 HD
ATOM     15  O   LYS A   1       8.844  36.756  21.735  0.00  0.00    -0.274 OA
BRANCH  12  16
ATOM     16  CA  LYS A   1       6.722  37.848  21.626  0.00  0.00    +0.145 C 
BRANCH  16  17
ATOM     17  N   LYS A   1       7.277  38.530  20.454  0.00  0.00    -0.238 NA
ATOM     18  H   LYS A   1       8.112  38.124  19.985  0.00  0.00    +0.142 HD
ENDBRANCH  16  17
BRANCH  16  19
ATOM     19  CB  LYS A   1       5.547  36.968  21.193  0.00  0.00    +0.026 C 
BRANCH  19  20
ATOM     20  CG  LYS A   1       5.848  36.073  20.016  0.00  0.00    -0.000 C 
BRANCH  20  21
ATOM     21  CD  LYS A   1       4.563  35.484  19.458  0.00  0.00    -0.024 C 
BRANCH  21  22
ATOM     22  CE  LYS A   1       4.849  34.358  18.483  0.00  0.00    -0.086 C 
BRANCH  22  23
ATOM     23  NZ  LYS A   1       3.574  33.781  17.966  0.00  0.00    +0.380 N 
ATOM     24  HZ1 LYS A   1       3.016  33.408  18.761  0.00  0.00    -0.089 HD
ATOM     25  HZ2 LYS A   1       3.032  34.523  17.478  0.00  0.00    -0.089 HD
ATOM     26  HZ3 LYS A   1       3.788  33.012  17.300  0.00  0.00    -0.089 HD
ENDBRANCH  22  23
ENDBRANCH  21  22
ENDBRANCH  20  21
ENDBRANCH  19  20
ENDBRANCH  16  19
ENDBRANCH  12  16
ENDBRANCH  11  13
BRANCH  11  27
ATOM     27  CB  SER A   2       7.863  35.307  25.634  0.00  0.00    +0.166 C 
BRANCH  27  28
ATOM     28  OG  SER A   2       6.732  34.478  25.407  0.00  0.00    -0.380 OA
ATOM     29  H   SER A   2       6.046  34.987  24.907  0.00  0.00    +0.211 HD
ENDBRANCH  27  28
ENDBRANCH  11  27
ENDBRANCH   7  11
ENDBRANCH   6   9
ENDBRANCH   2   6
ENDBRANCH   1   4
BRANCH   1  30
ATOM     30  C   GLN A   4      11.251  35.555  19.247  0.00  0.00    +0.241 C 
ATOM     31  N   GLY A   5      11.166  36.219  20.391  0.00  0.00    -0.295 N 
ATOM     32  H   GLY A   5      10.506  35.897  21.128  0.00  0.00    +0.150 HD
ATOM     33  O   GLN A   4      11.998  35.895  18.327  0.00  0.00    -0.273 OA
BRANCH  31  34
ATOM     34  CA  GLY A   5      11.987  37.391  20.621  0.00  0.00    +0.176 C 
BRANCH  34  35
ATOM     35  C   GLY A   5      11.387  38.725  20.237  0.00  0.00    +0.243 C 
ATOM     36  N   TYR A   6      11.894  39.761  20.881  0.00  0.00    -0.298 N 
ATOM     37  H   TYR A   6      12.642  39.601  21.586  0.00  0.00    +0.150 HD
ATOM     38  O   GLY A   5      10.498  38.833  19.387  0.00  0.00    -0.273 OA
BRANCH  36  39
ATOM     39  CA  TYR A   6      11.439  41.110  20.633  0.00  0.00    +0.141 C 
BRANCH  39  40
ATOM     40  C   TYR A   6      12.497  41.777  19.773  0.00  0.00    +0.227 C 
ATOM     41  O   TYR A   6      13.709  41.669  20.045  0.00  0.00    -0.286 OA
ENDBRANCH  39  40
BRANCH  39  42
ATOM     42  CB  TYR A   6      11.246  41.832  21.979  0.00  0.00    +0.054 C 
BRANCH  42  43
ATOM     43  CG  TYR A   6      10.026  41.323  22.733  0.00  0.00    -0.020 A 
ATOM     44  CD2 TYR A   6      10.102  40.224  23.603  0.00  0.00    -0.001 A 
ATOM     45  CE2 TYR A   6       8.946  39.726  24.248  0.00  0.00    +0.036 A 
ATOM     46  CZ  TYR A   6       7.713  40.346  24.011  0.00  0.00    +0.134 A 
ATOM     47  CE1 TYR A   6       7.631  41.429  23.145  0.00  0.00    +0.036 A 
ATOM     48  CD1 TYR A   6       8.778  41.910  22.520  0.00  0.00    -0.001 A 
BRANCH  46  49
ATOM     49  OH  TYR A   6       6.558  39.957  24.671  0.00  0.00    -0.506 OA
ATOM     50  HH  TYR A   6       6.757  39.180  25.251  0.00  0.00    +0.292 HD
ENDBRANCH  46  49
ENDBRANCH  42  43
ENDBRANCH  39  42
ENDBRANCH  36  39
ENDBRANCH  34  35
ENDBRANCH  31  34
ENDBRANCH   1  30
BRANCH   1  51
ATOM     51  CB  GLN A   4       9.441  34.540  17.913  0.00  0.00    +0.039 C 
BRANCH  51  52
ATOM     52  CG  GLN A   4       8.604  33.331  17.556  0.00  0.00    +0.087 C 
BRANCH  52  53
ATOM     53  CD  GLN A   4       7.871  33.524  16.238  0.00  0.00    +0.219 C 
ATOM     54  OE1 GLN A   4       7.295  34.588  15.983  0.00  0.00    -0.275 OA
ATOM     55  NE2 GLN A   4       7.886  32.499  15.398  0.00  0.00    -0.329 N 
ATOM     56 HE21 GLN A   4       8.384  31.623  15.655  0.00  0.00    +0.145 HD
ATOM     57 HE22 GLN A   4       7.400  32.571  14.481  0.00  0.00    +0.145 HD
ENDBRANCH  52  53
ENDBRANCH  51  52
ENDBRANCH   1  51
TORSDOF 25
REMARK  Name = ../refined-set-2016/1m4h/1m4h_pocket.pdb
REMARK  293 active torsions:
REMARK  status: ('A' for Active; 'I' for Inactive)
REMARK    1  A    between atoms: _1  and  _3
REMARK    2  A    between atoms: _3  and  _4
REMARK    3  A    between atoms: _3  and  _6
REMARK    4  A    between atoms: _6  and  _7
REMARK    5  A    between atoms: _7  and  _8
REMARK    6  A    between atoms: _8  and  _9
REMARK    7  A    between atoms: _9  and  _10
REMARK    8  A    between atoms: _14  and  _16
REMARK    9  A    between atoms: _16  and  _17
REMARK   10  A    between atoms: _16  and  _19
REMARK   11  A    between atoms: _19  and  _20
REMARK   12  A    between atoms: _22  and  _24
REMARK   13  A    between atoms: _24  and  _25
REMARK   14  A    between atoms: _27  and  _29
REMARK   15  A    between atoms: _29  and  _30
REMARK   16  A    between atoms: _29  and  _32
REMARK   17  A    between atoms: _32  and  _33
REMARK   18  A    between atoms: _33  and  _34
REMARK   19  A    between atoms: _39  and  _41
REMARK   20  A    between atoms: _41  and  _42
REMARK   21  A    between atoms: _44  and  _46
REMARK   22  A    between atoms: _46  and  _47
REMARK   23  A    between atoms: _46  and  _49
REMARK   24  A    between atoms: _49  and  _50
REMARK   25  A    between atoms: _55  and  _56
REMARK   26  A    between atoms: _58  and  _60
REMARK   27  A    between atoms: _60  and  _61
REMARK   28  A    between atoms: _60  and  _63
REMARK   29  A    between atoms: _63  and  _64
REMARK   30  A    between atoms: _67  and  _69
REMARK   31  A    between atoms: _69  and  _70
REMARK   32  A    between atoms: _69  and  _72
REMARK   33  A    between atoms: _75  and  _77
REMARK   34  A    between atoms: _77  and  _78
REMARK   35  A    between atoms: _77  and  _80
REMARK   36  A    between atoms: _80  and  _81
REMARK   37  A    between atoms: _84  and  _86
REMARK   38  A    between atoms: _86  and  _87
REMARK   39  A    between atoms: _86  and  _89
REMARK   40  A    between atoms: _89  and  _90
REMARK   41  A    between atoms: _93  and  _95
REMARK   42  A    between atoms: _95  and  _96
REMARK   43  A    between atoms: _98  and  _100
REMARK   44  A    between atoms: _100  and  _101
REMARK   45  A    between atoms: _100  and  _103
REMARK   46  A    between atoms: _103  and  _104
REMARK   47  A    between atoms: _106  and  _108
REMARK   48  A    between atoms: _108  and  _109
REMARK   49  A    between atoms: _108  and  _111
REMARK   50  A    between atoms: _111  and  _112
REMARK   51  A    between atoms: _114  and  _116
REMARK   52  A    between atoms: _116  and  _117
REMARK   53  A    between atoms: _116  and  _119
REMARK   54  A    between atoms: _119  and  _120
REMARK   55  A    between atoms: _125  and  _127
REMARK   56  A    between atoms: _127  and  _128
REMARK   57  A    between atoms: _127  and  _130
REMARK   58  A    between atoms: _130  and  _131
REMARK   59  A    between atoms: _136  and  _137
REMARK   60  A    between atoms: _139  and  _141
REMARK   61  A    between atoms: _141  and  _142
REMARK   62  A    between atoms: _141  and  _144
REMARK   63  A    between atoms: _148  and  _149
REMARK   64  A    between atoms: _154  and  _156
REMARK   65  A    between atoms: _156  and  _157
REMARK   66  A    between atoms: _156  and  _159
REMARK   67  A    between atoms: _159  and  _160
REMARK   68  A    between atoms: _165  and  _166
REMARK   69  A    between atoms: _168  and  _170
REMARK   70  A    between atoms: _170  and  _171
REMARK   71  A    between atoms: _170  and  _173
REMARK   72  A    between atoms: _173  and  _174
REMARK   73  A    between atoms: _177  and  _179
REMARK   74  A    between atoms: _179  and  _180
REMARK   75  A    between atoms: _179  and  _182
REMARK   76  A    between atoms: _182  and  _183
REMARK   77  A    between atoms: _183  and  _184
REMARK   78  A    between atoms: _189  and  _191
REMARK   79  A    between atoms: _191  and  _192
REMARK   80  A    between atoms: _194  and  _196
REMARK   81  A    between atoms: _196  and  _197
REMARK   82  A    between atoms: _196  and  _199
REMARK   83  A    between atoms: _199  and  _200
REMARK   84  A    between atoms: _200  and  _201
REMARK   85  A    between atoms: _201  and  _202
REMARK   86  A    between atoms: _202  and  _203
REMARK   87  A    between atoms: _207  and  _209
REMARK   88  A    between atoms: _209  and  _210
REMARK   89  A    between atoms: _209  and  _212
REMARK   90  A    between atoms: _212  and  _213
REMARK   91  A    between atoms: _223  and  _225
REMARK   92  A    between atoms: _225  and  _226
REMARK   93  A    between atoms: _225  and  _228
REMARK   94  A    between atoms: _228  and  _229
REMARK   95  A    between atoms: _232  and  _234
REMARK   96  A    between atoms: _234  and  _235
REMARK   97  A    between atoms: _234  and  _237
REMARK   98  A    between atoms: _237  and  _238
REMARK   99  A    between atoms: _238  and  _239
REMARK  100  A    between atoms: _239  and  _240
REMARK  101  A    between atoms: _240  and  _241
REMARK  102  A    between atoms: _245  and  _247
REMARK  103  A    between atoms: _247  and  _248
REMARK  104  A    between atoms: _247  and  _250
REMARK  105  A    between atoms: _250  and  _251
REMARK  106  A    between atoms: _257  and  _259
REMARK  107  A    between atoms: _259  and  _260
REMARK  108  A    between atoms: _259  and  _262
REMARK  109  A    between atoms: _262  and  _263
REMARK  110  A    between atoms: _269  and  _271
REMARK  111  A    between atoms: _271  and  _272
REMARK  112  A    between atoms: _271  and  _274
REMARK  113  A    between atoms: _274  and  _275
REMARK  114  A    between atoms: _278  and  _280
REMARK  115  A    between atoms: _280  and  _281
REMARK  116  A    between atoms: _280  and  _283
REMARK  117  A    between atoms: _283  and  _284
REMARK  118  A    between atoms: _286  and  _288
REMARK  119  A    between atoms: _288  and  _289
REMARK  120  A    between atoms: _288  and  _291
REMARK  121  A    between atoms: _291  and  _292
REMARK  122  A    between atoms: _302  and  _304
REMARK  123  A    between atoms: _304  and  _305
REMARK  124  A    between atoms: _307  and  _309
REMARK  125  A    between atoms: _309  and  _310
REMARK  126  A    between atoms: _309  and  _312
REMARK  127  A    between atoms: _312  and  _313
REMARK  128  A    between atoms: _316  and  _318
REMARK  129  A    between atoms: _318  and  _319
REMARK  130  A    between atoms: _318  and  _321
REMARK  131  A    between atoms: _321  and  _322
REMARK  132  A    between atoms: _325  and  _327
REMARK  133  A    between atoms: _327  and  _328
REMARK  134  A    between atoms: _327  and  _330
REMARK  135  A    between atoms: _330  and  _331
REMARK  136  A    between atoms: _334  and  _336
REMARK  137  A    between atoms: _336  and  _337
REMARK  138  A    between atoms: _340  and  _342
REMARK  139  A    between atoms: _342  and  _343
REMARK  140  A    between atoms: _342  and  _345
REMARK  141  A    between atoms: _345  and  _346
REMARK  142  A    between atoms: _351  and  _352
REMARK  143  A    between atoms: _354  and  _356
REMARK  144  A    between atoms: _356  and  _357
REMARK  145  A    between atoms: _360  and  _362
REMARK  146  A    between atoms: _362  and  _363
REMARK  147  A    between atoms: _362  and  _365
REMARK  148  A    between atoms: _365  and  _366
REMARK  149  A    between atoms: _366  and  _367
REMARK  150  A    between atoms: _370  and  _372
REMARK  151  A    between atoms: _372  and  _373
REMARK  152  A    between atoms: _372  and  _375
REMARK  153  A    between atoms: _375  and  _376
REMARK  154  A    between atoms: _379  and  _381
REMARK  155  A    between atoms: _381  and  _382
REMARK  156  A    between atoms: _385  and  _387
REMARK  157  A    between atoms: _387  and  _388
REMARK  158  A    between atoms: _387  and  _390
REMARK  159  A    between atoms: _390  and  _391
REMARK  160  A    between atoms: _391  and  _392
REMARK  161  A    between atoms: _392  and  _393
REMARK  162  A    between atoms: _403  and  _404
REMARK  163  A    between atoms: _409  and  _411
REMARK  164  A    between atoms: _411  and  _412
REMARK  165  A    between atoms: _411  and  _414
REMARK  166  A    between atoms: _414  and  _415
REMARK  167  A    between atoms: _418  and  _420
REMARK  168  A    between atoms: _420  and  _421
REMARK  169  A    between atoms: _420  and  _423
REMARK  170  A    between atoms: _423  and  _424
REMARK  171  A    between atoms: _427  and  _429
REMARK  172  A    between atoms: _429  and  _430
REMARK  173  A    between atoms: _429  and  _432
REMARK  174  A    between atoms: _432  and  _433
REMARK  175  A    between atoms: _433  and  _434
REMARK  176  A    between atoms: _434  and  _435
REMARK  177  A    between atoms: _444  and  _446
REMARK  178  A    between atoms: _446  and  _447
REMARK  179  A    between atoms: _446  and  _449
REMARK  180  A    between atoms: _449  and  _450
REMARK  181  A    between atoms: _460  and  _462
REMARK  182  A    between atoms: _462  and  _463
REMARK  183  A    between atoms: _462  and  _465
REMARK  184  A    between atoms: _465  and  _466
REMARK  185  A    between atoms: _471  and  _472
REMARK  186  A    between atoms: _474  and  _476
REMARK  187  A    between atoms: _476  and  _477
REMARK  188  A    between atoms: _476  and  _479
REMARK  189  A    between atoms: _479  and  _480
REMARK  190  A    between atoms: _480  and  _481
REMARK  191  A    between atoms: _481  and  _482
REMARK  192  A    between atoms: _482  and  _483
REMARK  193  A    between atoms: _487  and  _489
REMARK  194  A    between atoms: _489  and  _490
REMARK  195  A    between atoms: _489  and  _492
REMARK  196  A    between atoms: _492  and  _493
REMARK  197  A    between atoms: _496  and  _498
REMARK  198  A    between atoms: _498  and  _499
REMARK  199  A    between atoms: _498  and  _501
REMARK  200  A    between atoms: _504  and  _506
REMARK  201  A    between atoms: _506  and  _507
REMARK  202  A    between atoms: _506  and  _509
REMARK  203  A    between atoms: _509  and  _510
REMARK  204  A    between atoms: _513  and  _515
REMARK  205  A    between atoms: _515  and  _516
REMARK  206  A    between atoms: _515  and  _518
REMARK  207  A    between atoms: _518  and  _519
REMARK  208  A    between atoms: _521  and  _523
REMARK  209  A    between atoms: _523  and  _524
REMARK  210  A    between atoms: _526  and  _528
REMARK  211  A    between atoms: _528  and  _529
REMARK  212  A    between atoms: _528  and  _531
REMARK  213  A    between atoms: _531  and  _532
REMARK  214  A    between atoms: _535  and  _537
REMARK  215  A    between atoms: _537  and  _538
REMARK  216  A    between atoms: _537  and  _540
REMARK  217  A    between atoms: _540  and  _541
REMARK  218  A    between atoms: _544  and  _546
REMARK  219  A    between atoms: _546  and  _547
REMARK  220  A    between atoms: _546  and  _549
REMARK  221  A    between atoms: _549  and  _550
REMARK  222  A    between atoms: _555  and  _557
REMARK  223  A    between atoms: _557  and  _558
REMARK  224  A    between atoms: _557  and  _560
REMARK  225  A    between atoms: _560  and  _561
REMARK  226  A    between atoms: _564  and  _566
REMARK  227  A    between atoms: _566  and  _567
REMARK  228  A    between atoms: _566  and  _569
REMARK  229  A    between atoms: _569  and  _570
REMARK  230  A    between atoms: _570  and  _571
REMARK  231  A    between atoms: _571  and  _572
REMARK  232  A    between atoms: _581  and  _583
REMARK  233  A    between atoms: _583  and  _584
REMARK  234  A    between atoms: _586  and  _588
REMARK  235  A    between atoms: _588  and  _589
REMARK  236  A    between atoms: _588  and  _591
REMARK  237  A    between atoms: _591  and  _592
REMARK  238  A    between atoms: _592  and  _593
REMARK  239  A    between atoms: _596  and  _598
REMARK  240  A    between atoms: _598  and  _599
REMARK  241  A    between atoms: _598  and  _601
REMARK  242  A    between atoms: _601  and  _602
REMARK  243  A    between atoms: _602  and  _603
REMARK  244  A    between atoms: _603  and  _604
REMARK  245  A    between atoms: _614  and  _615
REMARK  246  A    between atoms: _620  and  _622
REMARK  247  A    between atoms: _622  and  _623
REMARK  248  A    between atoms: _622  and  _625
REMARK  249  A    between atoms: _628  and  _630
REMARK  250  A    between atoms: _630  and  _631
REMARK  251  A    between atoms: _630  and  _633
REMARK  252  A    between atoms: _633  and  _634
REMARK  253  A    between atoms: _634  and  _635
REMARK  254  A    between atoms: _638  and  _640
REMARK  255  A    between atoms: _640  and  _641
REMARK  256  A    between atoms: _640  and  _643
REMARK  257  A    between atoms: _643  and  _644
REMARK  258  A    between atoms: _644  and  _645
REMARK  259  A    between atoms: _645  and  _646
REMARK  260  A    between atoms: _646  and  _647
REMARK  261  A    between atoms: _651  and  _653
REMARK  262  A    between atoms: _653  and  _654
REMARK  263  A    between atoms: _657  and  _659
REMARK  264  A    between atoms: _659  and  _660
REMARK  265  A    between atoms: _659  and  _662
REMARK  266  A    between atoms: _662  and  _663
REMARK  267  A    between atoms: _665  and  _667
REMARK  268  A    between atoms: _667  and  _668
REMARK  269  A    between atoms: _667  and  _670
REMARK  270  A    between atoms: _670  and  _671
REMARK  271  A    between atoms: _671  and  _672
REMARK  272  A    between atoms: _677  and  _679
REMARK  273  A    between atoms: _679  and  _680
REMARK  274  A    between atoms: _679  and  _682
REMARK  275  A    between atoms: _682  and  _683
REMARK  276  A    between atoms: _685  and  _687
REMARK  277  A    between atoms: _687  and  _688
REMARK  278  A    between atoms: _687  and  _690
REMARK  279  A    between atoms: _690  and  _691
REMARK  280  A    between atoms: _694  and  _696
REMARK  281  A    between atoms: _696  and  _697
REMARK  282  A    between atoms: _696  and  _699
REMARK  283  A    between atoms: _699  and  _700
REMARK  284  A    between atoms: _703  and  _705
REMARK  285  A    between atoms: _705  and  _706
REMARK  286  A    between atoms: _705  and  _708
REMARK  287  A    between atoms: _711  and  _713
REMARK  288  A    between atoms: _713  and  _714
REMARK  289  A    between atoms: _716  and  _718
REMARK  290  A    between atoms: _718  and  _719
REMARK  291  A    between atoms: _722  and  _724
REMARK  292  A    between atoms: _724  and  _725
REMARK  293  A    between atoms: _724  and  _727
REMARK                            x       y       z     vdW  Elec       q    Type
REMARK                         _______ _______ _______ _____ _____    ______ ____
ROOT
ATOM      1  C   THR A   4      21.817  40.398  27.005  0.00  0.00    +0.243 C 
ATOM      2  O   THR A   4      22.654  40.630  27.871  0.00  0.00    -0.273 OA
ATOM      3  N   GLY A   5      21.667  39.197  26.438  0.00  0.00    -0.295 N 
ATOM      4  H   GLY A   5      20.950  39.070  25.696  0.00  0.00    +0.150 HD
ENDROOT
BRANCH   3   5
ATOM      5  CA  GLY A   5      22.490  38.060  26.840  0.00  0.00    +0.176 C 
BRANCH   5   6
ATOM      6  C   GLY A   5      23.750  37.810  26.007  0.00  0.00    +0.243 C 
ATOM      7  O   GLY A   5      24.420  36.784  26.159  0.00  0.00    -0.273 OA
ATOM      8  N   SER A   6      24.064  38.741  25.115  0.00  0.00    -0.295 N 
ATOM      9  H   SER A   6      23.445  39.570  25.011  0.00  0.00    +0.150 HD
BRANCH   8  10
ATOM     10  CA  SER A   6      25.253  38.635  24.275  0.00  0.00    +0.178 C 
BRANCH  10  11
ATOM     11  C   SER A   6      25.771  40.045  23.965  0.00  0.00    +0.243 C 
ATOM     12  O   SER A   6      25.120  41.032  24.291  0.00  0.00    -0.273 OA
ATOM     13  N   SER A   7      26.926  40.126  23.315  0.00  0.00    -0.295 N 
ATOM     14  H   SER A   7      27.404  39.251  23.020  0.00  0.00    +0.150 HD
BRANCH  13  15
ATOM     15  CA  SER A   7      27.543  41.413  23.003  0.00  0.00    +0.178 C 
BRANCH  15  16
ATOM     16  C   SER A   7      27.946  41.628  21.525  0.00  0.00    +0.243 C 
ATOM     17  O   SER A   7      28.722  42.520  21.211  0.00  0.00    -0.273 OA
ATOM     18  N   ASN A   8      27.430  40.811  20.622  0.00  0.00    -0.298 N 
ATOM     19  H   ASN A   8      26.796  40.044  20.923  0.00  0.00    +0.150 HD
BRANCH  18  20
ATOM     20  CA  ASN A   8      27.744  40.978  19.208  0.00  0.00    +0.146 C 
BRANCH  20  21
ATOM     21  C   ASN A   8      26.545  41.453  18.400  0.00  0.00    +0.227 C 
ATOM     22  O   ASN A   8      25.432  40.936  18.529  0.00  0.00    -0.286 OA
ENDBRANCH  20  21
BRANCH  20  23
ATOM     23  CB  ASN A   8      28.251  39.666  18.593  0.00  0.00    +0.112 C 
BRANCH  23  24
ATOM     24  CG  ASN A   8      29.685  39.341  18.999  0.00  0.00    +0.222 C 
ATOM     25  OD1 ASN A   8      29.927  38.780  20.069  0.00  0.00    -0.275 OA
ATOM     26  ND2 ASN A   8      30.645  39.699  18.139  0.00  0.00    -0.329 N 
ATOM     27 HD21 ASN A   8      31.642  39.506  18.363  0.00  0.00    +0.145 HD
ATOM     28 HD22 ASN A   8      30.394  40.171  17.247  0.00  0.00    +0.145 HD
ENDBRANCH  23  24
ENDBRANCH  20  23
ENDBRANCH  18  20
ENDBRANCH  15  16
BRANCH  15  29
ATOM     29  CB  SER A   7      28.772  41.588  23.904  0.00  0.00    +0.166 C 
BRANCH  29  30
ATOM     30  OG  SER A   7      28.416  41.419  25.264  0.00  0.00    -0.380 OA
ATOM     31  H   SER A   7      29.219  41.535  25.831  0.00  0.00    +0.211 HD
ENDBRANCH  29  30
ENDBRANCH  15  29
ENDBRANCH  13  15
ENDBRANCH  10  11
BRANCH  10  32
ATOM     32  CB  SER A   6      24.934  37.888  22.973  0.00  0.00    +0.166 C 
BRANCH  32  33
ATOM     33  OG  SER A   6      24.123  38.660  22.111  0.00  0.00    -0.380 OA
ATOM     34  H   SER A   6      23.270  38.873  22.565  0.00  0.00    +0.211 HD
ENDBRANCH  32  33
ENDBRANCH  10  32
ENDBRANCH   8  10
ENDBRANCH   5   6
ENDBRANCH   3   5
BRANCH   1  35
ATOM     35  CA  THR A   4      20.899  41.513  26.526  0.00  0.00    +0.176 C 
BRANCH  35  37
ATOM     36  C   ASP A   3      20.409  40.959  24.237  0.00  0.00    +0.241 C 
ATOM     37  N   THR A   4      19.974  41.077  25.486  0.00  0.00    -0.295 N 
ATOM     38  H   THR A   4      18.984  40.861  25.720  0.00  0.00    +0.150 HD
ATOM     39  O   ASP A   3      21.584  41.173  23.938  0.00  0.00    -0.273 OA
BRANCH  36  40
ATOM     40  CA  ASP A   3      19.390  40.505  23.181  0.00  0.00    +0.160 C 
BRANCH  40  43
ATOM     41  C   VAL A   2      17.491  41.706  22.180  0.00  0.00    +0.241 C 
ATOM     42  O   VAL A   2      16.647  41.023  22.755  0.00  0.00    -0.273 OA
ATOM     43  N   ASP A   3      18.814  41.555  22.337  0.00  0.00    -0.297 N 
ATOM     44  H   ASP A   3      19.455  42.207  21.841  0.00  0.00    +0.150 HD
BRANCH  41  45
ATOM     45  CA  VAL A   2      17.050  42.808  21.240  0.00  0.00    +0.148 C 
BRANCH  45  47
ATOM     46  C   LEU A   1      17.117  41.741  19.088  0.00  0.00    +0.238 C 
ATOM     47  N   VAL A   2      16.389  42.160  20.119  0.00  0.00    -0.297 N 
ATOM     48  H   VAL A   2      15.358  42.026  20.123  0.00  0.00    +0.150 HD
ATOM     49  O   LEU A   1      18.328  41.891  19.039  0.00  0.00    -0.274 OA
BRANCH  46  50
ATOM     50  CA  LEU A   1      16.392  41.059  17.952  0.00  0.00    +0.145 C 
BRANCH  50  51
ATOM     51  N   LEU A   1      16.782  41.619  16.671  0.00  0.00    -0.238 NA
ATOM     52  H   LEU A   1      17.264  41.000  15.988  0.00  0.00    +0.142 HD
ENDBRANCH  50  51
BRANCH  50  53
ATOM     53  CB  LEU A   1      16.724  39.567  17.988  0.00  0.00    +0.026 C 
BRANCH  53  54
ATOM     54  CG  LEU A   1      16.552  38.895  19.356  0.00  0.00    +0.002 C 
ATOM     55  CD2 LEU A   1      15.089  38.525  19.534  0.00  0.00    +0.000 C 
ATOM     56  CD1 LEU A   1      17.437  37.644  19.453  0.00  0.00    +0.000 C 
ENDBRANCH  53  54
ENDBRANCH  50  53
ENDBRANCH  46  50
ENDBRANCH  45  47
BRANCH  45  57
ATOM     57  CB  VAL A   2      16.125  43.776  22.001  0.00  0.00    +0.027 C 
ATOM     58  CG2 VAL A   2      16.758  44.118  23.352  0.00  0.00    +0.002 C 
ATOM     59  CG1 VAL A   2      15.904  45.045  21.177  0.00  0.00    +0.002 C 
ENDBRANCH  45  57
ENDBRANCH  41  45
ENDBRANCH  40  43
BRANCH  40  60
ATOM     60  CB  ASP A   3      20.027  39.452  22.271  0.00  0.00    +0.143 C 
BRANCH  60  61
ATOM     61  CG  ASP A   3      20.542  38.260  23.039  0.00  0.00    +0.367 C 
ATOM     62  OD2 ASP A   3      19.734  37.602  23.721  0.00  0.00    -0.246 OA
ATOM     63  OD1 ASP A   3      21.756  37.983  22.964  0.00  0.00    -0.246 OA
ENDBRANCH  60  61
ENDBRANCH  40  60
ENDBRANCH  36  40
ENDBRANCH  35  37
BRANCH  35  64
ATOM     64  CB  THR A   4      20.154  42.098  27.767  0.00  0.00    +0.137 C 
ATOM     65  CG2 THR A   4      19.507  43.454  27.432  0.00  0.00    +0.034 C 
BRANCH  64  66
ATOM     66  OG1 THR A   4      19.162  41.168  28.224  0.00  0.00    -0.382 OA
ATOM     67  HG1 THR A   4      18.509  41.001  27.499  0.00  0.00    +0.210 HD
ENDBRANCH  64  66
ENDBRANCH  35  64
ENDBRANCH   1  35
TORSDOF 29
REMARK  Name = ../refined-set-2016/1m4h/1m4h_pocket.pdb
REMARK  293 active torsions:
REMARK  status: ('A' for Active; 'I' for Inactive)
REMARK    1  A    between atoms: _1  and  _3
REMARK    2  A    between atoms: _3  and  _4
REMARK    3  A    between atoms: _3  and  _6
REMARK    4  A    between atoms: _6  and  _7
REMARK    5  A    between atoms: _7  and  _8
REMARK    6  A    between atoms: _8  and  _9
REMARK    7  A    between atoms: _9  and  _10
REMARK    8  A    between atoms: _14  and  _16
REMARK    9  A    between atoms: _16  and  _17
REMARK   10  A    between atoms: _16  and  _19
REMARK   11  A    between atoms: _19  and  _20
REMARK   12  A    between atoms: _22  and  _24
REMARK   13  A    between atoms: _24  and  _25
REMARK   14  A    between atoms: _27  and  _29
REMARK   15  A    between atoms: _29  and  _30
REMARK   16  A    between atoms: _29  and  _32
REMARK   17  A    between atoms: _32  and  _33
REMARK   18  A    between atoms: _33  and  _34
REMARK   19  A    between atoms: _39  and  _41
REMARK   20  A    between atoms: _41  and  _42
REMARK   21  A    between atoms: _44  and  _46
REMARK   22  A    between atoms: _46  and  _47
REMARK   23  A    between atoms: _46  and  _49
REMARK   24  A    between atoms: _49  and  _50
REMARK   25  A    between atoms: _55  and  _56
REMARK   26  A    between atoms: _58  and  _60
REMARK   27  A    between atoms: _60  and  _61
REMARK   28  A    between atoms: _60  and  _63
REMARK   29  A    between atoms: _63  and  _64
REMARK   30  A    between atoms: _67  and  _69
REMARK   31  A    between atoms: _69  and  _70
REMARK   32  A    between atoms: _69  and  _72
REMARK   33  A    between atoms: _75  and  _77
REMARK   34  A    between atoms: _77  and  _78
REMARK   35  A    between atoms: _77  and  _80
REMARK   36  A    between atoms: _80  and  _81
REMARK   37  A    between atoms: _84  and  _86
REMARK   38  A    between atoms: _86  and  _87
REMARK   39  A    between atoms: _86  and  _89
REMARK   40  A    between atoms: _89  and  _90
REMARK   41  A    between atoms: _93  and  _95
REMARK   42  A    between atoms: _95  and  _96
REMARK   43  A    between atoms: _98  and  _100
REMARK   44  A    between atoms: _100  and  _101
REMARK   45  A    between atoms: _100  and  _103
REMARK   46  A    between atoms: _103  and  _104
REMARK   47  A    between atoms: _106  and  _108
REMARK   48  A    between atoms: _108  and  _109
REMARK   49  A    between atoms: _108  and  _111
REMARK   50  A    between atoms: _111  and  _112
REMARK   51  A    between atoms: _114  and  _116
REMARK   52  A    between atoms: _116  and  _117
REMARK   53  A    between atoms: _116  and  _119
REMARK   54  A    between atoms: _119  and  _120
REMARK   55  A    between atoms: _125  and  _127
REMARK   56  A    between atoms: _127  and  _128
REMARK   57  A    between atoms: _127  and  _130
REMARK   58  A    between atoms: _130  and  _131
REMARK   59  A    between atoms: _136  and  _137
REMARK   60  A    between atoms: _139  and  _141
REMARK   61  A    between atoms: _141  and  _142
REMARK   62  A    between atoms: _141  and  _144
REMARK   63  A    between atoms: _148  and  _149
REMARK   64  A    between atoms: _154  and  _156
REMARK   65  A    between atoms: _156  and  _157
REMARK   66  A    between atoms: _156  and  _159
REMARK   67  A    between atoms: _159  and  _160
REMARK   68  A    between atoms: _165  and  _166
REMARK   69  A    between atoms: _168  and  _170
REMARK   70  A    between atoms: _170  and  _171
REMARK   71  A    between atoms: _170  and  _173
REMARK   72  A    between atoms: _173  and  _174
REMARK   73  A    between atoms: _177  and  _179
REMARK   74  A    between atoms: _179  and  _180
REMARK   75  A    between atoms: _179  and  _182
REMARK   76  A    between atoms: _182  and  _183
REMARK   77  A    between atoms: _183  and  _184
REMARK   78  A    between atoms: _189  and  _191
REMARK   79  A    between atoms: _191  and  _192
REMARK   80  A    between atoms: _194  and  _196
REMARK   81  A    between atoms: _196  and  _197
REMARK   82  A    between atoms: _196  and  _199
REMARK   83  A    between atoms: _199  and  _200
REMARK   84  A    between atoms: _200  and  _201
REMARK   85  A    between atoms: _201  and  _202
REMARK   86  A    between atoms: _202  and  _203
REMARK   87  A    between atoms: _207  and  _209
REMARK   88  A    between atoms: _209  and  _210
REMARK   89  A    between atoms: _209  and  _212
REMARK   90  A    between atoms: _212  and  _213
REMARK   91  A    between atoms: _223  and  _225
REMARK   92  A    between atoms: _225  and  _226
REMARK   93  A    between atoms: _225  and  _228
REMARK   94  A    between atoms: _228  and  _229
REMARK   95  A    between atoms: _232  and  _234
REMARK   96  A    between atoms: _234  and  _235
REMARK   97  A    between atoms: _234  and  _237
REMARK   98  A    between atoms: _237  and  _238
REMARK   99  A    between atoms: _238  and  _239
REMARK  100  A    between atoms: _239  and  _240
REMARK  101  A    between atoms: _240  and  _241
REMARK  102  A    between atoms: _245  and  _247
REMARK  103  A    between atoms: _247  and  _248
REMARK  104  A    between atoms: _247  and  _250
REMARK  105  A    between atoms: _250  and  _251
REMARK  106  A    between atoms: _257  and  _259
REMARK  107  A    between atoms: _259  and  _260
REMARK  108  A    between atoms: _259  and  _262
REMARK  109  A    between atoms: _262  and  _263
REMARK  110  A    between atoms: _269  and  _271
REMARK  111  A    between atoms: _271  and  _272
REMARK  112  A    between atoms: _271  and  _274
REMARK  113  A    between atoms: _274  and  _275
REMARK  114  A    between atoms: _278  and  _280
REMARK  115  A    between atoms: _280  and  _281
REMARK  116  A    between atoms: _280  and  _283
REMARK  117  A    between atoms: _283  and  _284
REMARK  118  A    between atoms: _286  and  _288
REMARK  119  A    between atoms: _288  and  _289
REMARK  120  A    between atoms: _288  and  _291
REMARK  121  A    between atoms: _291  and  _292
REMARK  122  A    between atoms: _302  and  _304
REMARK  123  A    between atoms: _304  and  _305
REMARK  124  A    between atoms: _307  and  _309
REMARK  125  A    between atoms: _309  and  _310
REMARK  126  A    between atoms: _309  and  _312
REMARK  127  A    between atoms: _312  and  _313
REMARK  128  A    between atoms: _316  and  _318
REMARK  129  A    between atoms: _318  and  _319
REMARK  130  A    between atoms: _318  and  _321
REMARK  131  A    between atoms: _321  and  _322
REMARK  132  A    between atoms: _325  and  _327
REMARK  133  A    between atoms: _327  and  _328
REMARK  134  A    between atoms: _327  and  _330
REMARK  135  A    between atoms: _330  and  _331
REMARK  136  A    between atoms: _334  and  _336
REMARK  137  A    between atoms: _336  and  _337
REMARK  138  A    between atoms: _340  and  _342
REMARK  139  A    between atoms: _342  and  _343
REMARK  140  A    between atoms: _342  and  _345
REMARK  141  A    between atoms: _345  and  _346
REMARK  142  A    between atoms: _351  and  _352
REMARK  143  A    between atoms: _354  and  _356
REMARK  144  A    between atoms: _356  and  _357
REMARK  145  A    between atoms: _360  and  _362
REMARK  146  A    between atoms: _362  and  _363
REMARK  147  A    between atoms: _362  and  _365
REMARK  148  A    between atoms: _365  and  _366
REMARK  149  A    between atoms: _366  and  _367
REMARK  150  A    between atoms: _370  and  _372
REMARK  151  A    between atoms: _372  and  _373
REMARK  152  A    between atoms: _372  and  _375
REMARK  153  A    between atoms: _375  and  _376
REMARK  154  A    between atoms: _379  and  _381
REMARK  155  A    between atoms: _381  and  _382
REMARK  156  A    between atoms: _385  and  _387
REMARK  157  A    between atoms: _387  and  _388
REMARK  158  A    between atoms: _387  and  _390
REMARK  159  A    between atoms: _390  and  _391
REMARK  160  A    between atoms: _391  and  _392
REMARK  161  A    between atoms: _392  and  _393
REMARK  162  A    between atoms: _403  and  _404
REMARK  163  A    between atoms: _409  and  _411
REMARK  164  A    between atoms: _411  and  _412
REMARK  165  A    between atoms: _411  and  _414
REMARK  166  A    between atoms: _414  and  _415
REMARK  167  A    between atoms: _418  and  _420
REMARK  168  A    between atoms: _420  and  _421
REMARK  169  A    between atoms: _420  and  _423
REMARK  170  A    between atoms: _423  and  _424
REMARK  171  A    between atoms: _427  and  _429
REMARK  172  A    between atoms: _429  and  _430
REMARK  173  A    between atoms: _429  and  _432
REMARK  174  A    between atoms: _432  and  _433
REMARK  175  A    between atoms: _433  and  _434
REMARK  176  A    between atoms: _434  and  _435
REMARK  177  A    between atoms: _444  and  _446
REMARK  178  A    between atoms: _446  and  _447
REMARK  179  A    between atoms: _446  and  _449
REMARK  180  A    between atoms: _449  and  _450
REMARK  181  A    between atoms: _460  and  _462
REMARK  182  A    between atoms: _462  and  _463
REMARK  183  A    between atoms: _462  and  _465
REMARK  184  A    between atoms: _465  and  _466
REMARK  185  A    between atoms: _471  and  _472
REMARK  186  A    between atoms: _474  and  _476
REMARK  187  A    between atoms: _476  and  _477
REMARK  188  A    between atoms: _476  and  _479
REMARK  189  A    between atoms: _479  and  _480
REMARK  190  A    between atoms: _480  and  _481
REMARK  191  A    between atoms: _481  and  _482
REMARK  192  A    between atoms: _482  and  _483
REMARK  193  A    between atoms: _487  and  _489
REMARK  194  A    between atoms: _489  and  _490
REMARK  195  A    between atoms: _489  and  _492
REMARK  196  A    between atoms: _492  and  _493
REMARK  197  A    between atoms: _496  and  _498
REMARK  198  A    between atoms: _498  and  _499
REMARK  199  A    between atoms: _498  and  _501
REMARK  200  A    between atoms: _504  and  _506
REMARK  201  A    between atoms: _506  and  _507
REMARK  202  A    between atoms: _506  and  _509
REMARK  203  A    between atoms: _509  and  _510
REMARK  204  A    between atoms: _513  and  _515
REMARK  205  A    between atoms: _515  and  _516
REMARK  206  A    between atoms: _515  and  _518
REMARK  207  A    between atoms: _518  and  _519
REMARK  208  A    between atoms: _521  and  _523
REMARK  209  A    between atoms: _523  and  _524
REMARK  210  A    between atoms: _526  and  _528
REMARK  211  A    between atoms: _528  and  _529
REMARK  212  A    between atoms: _528  and  _531
REMARK  213  A    between atoms: _531  and  _532
REMARK  214  A    between atoms: _535  and  _537
REMARK  215  A    between atoms: _537  and  _538
REMARK  216  A    between atoms: _537  and  _540
REMARK  217  A    between atoms: _540  and  _541
REMARK  218  A    between atoms: _544  and  _546
REMARK  219  A    between atoms: _546  and  _547
REMARK  220  A    between atoms: _546  and  _549
REMARK  221  A    between atoms: _549  and  _550
REMARK  222  A    between atoms: _555  and  _557
REMARK  223  A    between atoms: _557  and  _558
REMARK  224  A    between atoms: _557  and  _560
REMARK  225  A    between atoms: _560  and  _561
REMARK  226  A    between atoms: _564  and  _566
REMARK  227  A    between atoms: _566  and  _567
REMARK  228  A    between atoms: _566  and  _569
REMARK  229  A    between atoms: _569  and  _570
REMARK  230  A    between atoms: _570  and  _571
REMARK  231  A    between atoms: _571  and  _572
REMARK  232  A    between atoms: _581  and  _583
REMARK  233  A    between atoms: _583  and  _584
REMARK  234  A    between atoms: _586  and  _588
REMARK  235  A    between atoms: _588  and  _589
REMARK  236  A    between atoms: _588  and  _591
REMARK  237  A    between atoms: _591  and  _592
REMARK  238  A    between atoms: _592  and  _593
REMARK  239  A    between atoms: _596  and  _598
REMARK  240  A    between atoms: _598  and  _599
REMARK  241  A    between atoms: _598  and  _601
REMARK  242  A    between atoms: _601  and  _602
REMARK  243  A    between atoms: _602  and  _603
REMARK  244  A    between atoms: _603  and  _604
REMARK  245  A    between atoms: _614  and  _615
REMARK  246  A    between atoms: _620  and  _622
REMARK  247  A    between atoms: _622  and  _623
REMARK  248  A    between atoms: _622  and  _625
REMARK  249  A    between atoms: _628  and  _630
REMARK  250  A    between atoms: _630  and  _631
REMARK  251  A    between atoms: _630  and  _633
REMARK  252  A    between atoms: _633  and  _634
REMARK  253  A    between atoms: _634  and  _635
REMARK  254  A    between atoms: _638  and  _640
REMARK  255  A    between atoms: _640  and  _641
REMARK  256  A    between atoms: _640  and  _643
REMARK  257  A    between atoms: _643  and  _644
REMARK  258  A    between atoms: _644  and  _645
REMARK  259  A    between atoms: _645  and  _646
REMARK  260  A    between atoms: _646  and  _647
REMARK  261  A    between atoms: _651  and  _653
REMARK  262  A    between atoms: _653  and  _654
REMARK  263  A    between atoms: _657  and  _659
REMARK  264  A    between atoms: _659  and  _660
REMARK  265  A    between atoms: _659  and  _662
REMARK  266  A    between atoms: _662  and  _663
REMARK  267  A    between atoms: _665  and  _667
REMARK  268  A    between atoms: _667  and  _668
REMARK  269  A    between atoms: _667  and  _670
REMARK  270  A    between atoms: _670  and  _671
REMARK  271  A    between atoms: _671  and  _672
REMARK  272  A    between atoms: _677  and  _679
REMARK  273  A    between atoms: _679  and  _680
REMARK  274  A    between atoms: _679  and  _682
REMARK  275  A    between atoms: _682  and  _683
REMARK  276  A    between atoms: _685  and  _687
REMARK  277  A    between atoms: _687  and  _688
REMARK  278  A    between atoms: _687  and  _690
REMARK  279  A    between atoms: _690  and  _691
REMARK  280  A    between atoms: _694  and  _696
REMARK  281  A    between atoms: _696  and  _697
REMARK  282  A    between atoms: _696  and  _699
REMARK  283  A    between atoms: _699  and  _700
REMARK  284  A    between atoms: _703  and  _705
REMARK  285  A    between atoms: _705  and  _706
REMARK  286  A    between atoms: _705  and  _708
REMARK  287  A    between atoms: _711  and  _713
REMARK  288  A    between atoms: _713  and  _714
REMARK  289  A    between atoms: _716  and  _718
REMARK  290  A    between atoms: _718  and  _719
REMARK  291  A    between atoms: _722  and  _724
REMARK  292  A    between atoms: _724  and  _725
REMARK  293  A    between atoms: _724  and  _727
REMARK                            x       y       z     vdW  Elec       q    Type
REMARK                         _______ _______ _______ _____ _____    ______ ____
ROOT
ATOM      1  CA  THR A   5      22.921  28.289  24.669  0.00  0.00    +0.176 C 
ENDROOT
BRANCH   1   2
ATOM      2  C   THR A   5      22.247  27.435  23.613  0.00  0.00    +0.243 C 
ATOM      3  O   THR A   5      22.353  26.216  23.626  0.00  0.00    -0.273 OA
ATOM      4  N   GLN A   6      21.532  28.070  22.694  0.00  0.00    -0.297 N 
ATOM      5  H   GLN A   6      21.404  29.101  22.747  0.00  0.00    +0.150 HD
BRANCH   4   6
ATOM      6  CA  GLN A   6      20.931  27.312  21.614  0.00  0.00    +0.149 C 
BRANCH   6   7
ATOM      7  C   GLN A   6      21.041  28.108  20.331  0.00  0.00    +0.241 C 
ATOM      8  O   GLN A   6      20.590  29.243  20.248  0.00  0.00    -0.273 OA
ATOM      9  N   GLY A   7      21.686  27.499  19.343  0.00  0.00    -0.295 N 
ATOM     10  H   GLY A   7      22.065  26.542  19.493  0.00  0.00    +0.150 HD
BRANCH   9  11
ATOM     11  CA  GLY A   7      21.869  28.144  18.064  0.00  0.00    +0.176 C 
BRANCH  11  12
ATOM     12  C   GLY A   7      23.272  28.690  17.955  0.00  0.00    +0.243 C 
ATOM     13  O   GLY A   7      23.945  28.905  18.972  0.00  0.00    -0.273 OA
ATOM     14  N   LYS A   8      23.729  28.883  16.722  0.00  0.00    -0.297 N 
ATOM     15  H   LYS A   8      23.135  28.626  15.908  0.00  0.00    +0.150 HD
BRANCH  14  16
ATOM     16  CA  LYS A   8      25.052  29.450  16.496  0.00  0.00    +0.149 C 
BRANCH  16  17
ATOM     17  C   LYS A   8      25.221  29.939  15.074  0.00  0.00    +0.241 C 
ATOM     18  N   TRP A   9      26.225  30.788  14.852  0.00  0.00    -0.298 N 
ATOM     19  H   TRP A   9      26.824  31.094  15.646  0.00  0.00    +0.150 HD
ATOM     20  O   LYS A   8      24.449  29.561  14.190  0.00  0.00    -0.273 OA
BRANCH  18  21
ATOM     21  CA  TRP A   9      26.494  31.292  13.513  0.00  0.00    +0.141 C 
BRANCH  21  22
ATOM     22  C   TRP A   9      27.948  31.674  13.269  0.00  0.00    +0.227 C 
ATOM     23  O   TRP A   9      28.755  31.761  14.193  0.00  0.00    -0.286 OA
ENDBRANCH  21  22
BRANCH  21  24
ATOM     24  CB  TRP A   9      25.577  32.482  13.148  0.00  0.00    +0.056 C 
BRANCH  24  25
ATOM     25  CG  TRP A   9      25.607  33.653  14.092  0.00  0.00    -0.002 A 
ATOM     26  CD1 TRP A   9      24.682  33.954  15.058  0.00  0.00    +0.068 A 
ATOM     27  NE1 TRP A   9      25.058  35.082  15.739  0.00  0.00    -0.352 N 
ATOM     28  HE1 TRP A   9      24.529  35.523  16.519  0.00  0.00    +0.166 HD
ATOM     29  CE2 TRP A   9      26.245  35.534  15.224  0.00  0.00    +0.056 A 
ATOM     30  CZ2 TRP A   9      27.020  36.636  15.589  0.00  0.00    +0.017 A 
ATOM     31  CH2 TRP A   9      28.181  36.855  14.889  0.00  0.00    +0.001 A 
ATOM     32  CZ3 TRP A   9      28.581  36.000  13.834  0.00  0.00    +0.000 A 
ATOM     33  CE3 TRP A   9      27.806  34.899  13.473  0.00  0.00    +0.001 A 
ATOM     34  CD2 TRP A   9      26.617  34.655  14.177  0.00  0.00    +0.013 A 
ENDBRANCH  24  25
ENDBRANCH  21  24
ENDBRANCH  18  21
ENDBRANCH  16  17
BRANCH  16  35
ATOM     35  CB  LYS A   8      26.128  28.426  16.794  0.00  0.00    +0.029 C 
BRANCH  35  36
ATOM     36  CG  LYS A   8      26.057  27.195  15.928  0.00  0.00    +0.000 C 
BRANCH  36  37
ATOM     37  CD  LYS A   8      27.094  26.218  16.391  0.00  0.00    -0.024 C 
BRANCH  37  38
ATOM     38  CE  LYS A   8      27.111  24.973  15.547  0.00  0.00    -0.086 C 
BRANCH  38  39
ATOM     39  NZ  LYS A   8      28.276  24.121  15.948  0.00  0.00    +0.380 N 
ATOM     40  HZ1 LYS A   8      28.185  23.862  16.951  0.00  0.00    -0.089 HD
ATOM     41  HZ2 LYS A   8      29.158  24.652  15.804  0.00  0.00    -0.089 HD
ATOM     42  HZ3 LYS A   8      28.290  23.259  15.366  0.00  0.00    -0.089 HD
ENDBRANCH  38  39
ENDBRANCH  37  38
ENDBRANCH  36  37
ENDBRANCH  35  36
ENDBRANCH  16  35
ENDBRANCH  14  16
ENDBRANCH  11  12
ENDBRANCH   9  11
ENDBRANCH   6   7
BRANCH   6  43
ATOM     43  CB  GLN A   6      19.482  26.953  21.914  0.00  0.00    +0.039 C 
BRANCH  43  44
ATOM     44  CG  GLN A   6      18.828  26.174  20.792  0.00  0.00    +0.087 C 
BRANCH  44  45
ATOM     45  CD  GLN A   6      17.645  25.337  21.260  0.00  0.00    +0.219 C 
ATOM     46  OE1 GLN A   6      16.783  25.811  22.018  0.00  0.00    -0.275 OA
ATOM     47  NE2 GLN A   6      17.592  24.084  20.802  0.00  0.00    -0.329 N 
ATOM     48 HE21 GLN A   6      16.806  23.462  21.079  0.00  0.00    +0.145 HD
ATOM     49 HE22 GLN A   6      18.337  23.730  20.169  0.00  0.00    +0.145 HD
ENDBRANCH  44  45
ENDBRANCH  43  44
ENDBRANCH   6  43
ENDBRANCH   4   6
ENDBRANCH   1   2
BRANCH   1  51
ATOM     50  C   TYR A   4      24.217  29.301  22.877  0.00  0.00    +0.241 C 
ATOM     51  N   THR A   5      23.466  29.458  23.966  0.00  0.00    -0.295 N 
ATOM     52  H   THR A   5      23.264  30.415  24.321  0.00  0.00    +0.150 HD
ATOM     53  O   TYR A   4      24.482  28.190  22.417  0.00  0.00    -0.273 OA
BRANCH  50  54
ATOM     54  CA  TYR A   4      24.739  30.568  22.182  0.00  0.00    +0.153 C 
BRANCH  54  57
ATOM     55  C   PRO A   3      26.923  30.573  21.064  0.00  0.00    +0.241 C 
ATOM     56  O   PRO A   3      27.410  31.334  21.899  0.00  0.00    -0.273 OA
ATOM     57  N   TYR A   4      25.653  30.174  21.103  0.00  0.00    -0.297 N 
ATOM     58  H   TYR A   4      25.296  29.562  20.342  0.00  0.00    +0.150 HD
BRANCH  55  64
ATOM     59  C   VAL A   2      28.431  31.797  18.384  0.00  0.00    +0.244 C 
ATOM     60  N   PRO A   3      28.716  31.094  19.488  0.00  0.00    -0.272 N 
ATOM     61  CD  PRO A   3      30.056  30.845  20.056  0.00  0.00    +0.094 C 
ATOM     62  CG  PRO A   3      29.828  29.635  20.971  0.00  0.00    +0.024 C 
ATOM     63  CB  PRO A   3      28.697  28.908  20.303  0.00  0.00    +0.031 C 
ATOM     64  CA  PRO A   3      27.774  30.055  19.897  0.00  0.00    +0.152 C 
ATOM     65  O   VAL A   2      27.426  31.573  17.713  0.00  0.00    -0.273 OA
BRANCH  59  66
ATOM     66  CA  VAL A   2      29.416  32.888  17.979  0.00  0.00    +0.149 C 
BRANCH  66  69
ATOM     67  C   TYR A   1      31.487  32.740  16.756  0.00  0.00    +0.239 C 
ATOM     68  O   TYR A   1      32.142  33.089  17.742  0.00  0.00    -0.274 OA
ATOM     69  N   VAL A   2      30.167  32.613  16.776  0.00  0.00    -0.297 N 
ATOM     70  H   VAL A   2      29.667  32.312  15.915  0.00  0.00    +0.150 HD
BRANCH  67  71
ATOM     71  CA  TYR A   1      32.179  32.439  15.433  0.00  0.00    +0.149 C 
BRANCH  71  72
ATOM     72  N   TYR A   1      33.091  33.548  15.142  0.00  0.00    -0.238 NA
ATOM     73  H   TYR A   1      33.803  33.818  15.851  0.00  0.00    +0.142 HD
ENDBRANCH  71  72
BRANCH  71  74
ATOM     74  CB  TYR A   1      32.934  31.116  15.556  0.00  0.00    +0.053 C 
BRANCH  74  75
ATOM     75  CG  TYR A   1      32.088  29.981  16.109  0.00  0.00    -0.020 A 
ATOM     76  CD2 TYR A   1      32.388  29.398  17.342  0.00  0.00    -0.001 A 
ATOM     77  CE2 TYR A   1      31.643  28.322  17.834  0.00  0.00    +0.036 A 
ATOM     78  CZ  TYR A   1      30.582  27.828  17.080  0.00  0.00    +0.134 A 
ATOM     79  CE1 TYR A   1      30.259  28.399  15.860  0.00  0.00    +0.036 A 
ATOM     80  CD1 TYR A   1      31.010  29.468  15.380  0.00  0.00    -0.001 A 
BRANCH  78  81
ATOM     81  OH  TYR A   1      29.861  26.744  17.523  0.00  0.00    -0.506 OA
ATOM     82  HH  TYR A   1      29.151  26.531  16.867  0.00  0.00    +0.292 HD
ENDBRANCH  78  81
ENDBRANCH  74  75
ENDBRANCH  71  74
ENDBRANCH  67  71
ENDBRANCH  66  69
BRANCH  66  83
ATOM     83  CB  VAL A   2      28.631  34.201  17.858  0.00  0.00    +0.027 C 
ATOM     84  CG2 VAL A   2      27.748  34.397  19.102  0.00  0.00    +0.002 C 
ATOM     85  CG1 VAL A   2      29.590  35.373  17.728  0.00  0.00    +0.002 C 
ENDBRANCH  66  83
ENDBRANCH  59  66
ENDBRANCH  55  64
ENDBRANCH  54  57
BRANCH  54  86
ATOM     86  CB  TYR A   4      23.551  31.338  21.614  0.00  0.00    +0.055 C 
BRANCH  86  87
ATOM     87  CG  TYR A   4      23.903  32.585  20.841  0.00  0.00    -0.020 A 
ATOM     88  CD2 TYR A   4      23.931  33.841  21.464  0.00  0.00    -0.001 A 
ATOM     89  CE2 TYR A   4      24.197  35.018  20.722  0.00  0.00    +0.036 A 
ATOM     90  CZ  TYR A   4      24.438  34.918  19.361  0.00  0.00    +0.134 A 
ATOM     91  CE1 TYR A   4      24.421  33.679  18.724  0.00  0.00    +0.036 A 
ATOM     92  CD1 TYR A   4      24.155  32.522  19.466  0.00  0.00    -0.001 A 
BRANCH  90  93
ATOM     93  OH  TYR A   4      24.704  36.036  18.624  0.00  0.00    -0.506 OA
ATOM     94  HH  TYR A   4      24.681  36.831  19.213  0.00  0.00    +0.292 HD
ENDBRANCH  90  93
ENDBRANCH  86  87
ENDBRANCH  54  86
ENDBRANCH  50  54
ENDBRANCH   1  51
BRANCH   1  95
ATOM     95  CB  THR A   5      21.897  28.685  25.767  0.00  0.00    +0.137 C 
ATOM     96  CG2 THR A   5      21.285  27.446  26.424  0.00  0.00    +0.034 C 
BRANCH  95  97
ATOM     97  OG1 THR A   5      22.567  29.428  26.784  0.00  0.00    -0.382 OA
ATOM     98  HG1 THR A   5      21.918  29.683  27.487  0.00  0.00    +0.210 HD
ENDBRANCH  95  97
ENDBRANCH   1  95
TORSDOF 36
REMARK  Name = ../refined-set-2016/1m4h/1m4h_pocket.pdb
REMARK  293 active torsions:
REMARK  status: ('A' for Active; 'I' for Inactive)
REMARK    1  A    between atoms: _1  and  _3
REMARK    2  A    between atoms: _3  and  _4
REMARK    3  A    between atoms: _3  and  _6
REMARK    4  A    between atoms: _6  and  _7
REMARK    5  A    between atoms: _7  and  _8
REMARK    6  A    between atoms: _8  and  _9
REMARK    7  A    between atoms: _9  and  _10
REMARK    8  A    between atoms: _14  and  _16
REMARK    9  A    between atoms: _16  and  _17
REMARK   10  A    between atoms: _16  and  _19
REMARK   11  A    between atoms: _19  and  _20
REMARK   12  A    between atoms: _22  and  _24
REMARK   13  A    between atoms: _24  and  _25
REMARK   14  A    between atoms: _27  and  _29
REMARK   15  A    between atoms: _29  and  _30
REMARK   16  A    between atoms: _29  and  _32
REMARK   17  A    between atoms: _32  and  _33
REMARK   18  A    between atoms: _33  and  _34
REMARK   19  A    between atoms: _39  and  _41
REMARK   20  A    between atoms: _41  and  _42
REMARK   21  A    between atoms: _44  and  _46
REMARK   22  A    between atoms: _46  and  _47
REMARK   23  A    between atoms: _46  and  _49
REMARK   24  A    between atoms: _49  and  _50
REMARK   25  A    between atoms: _55  and  _56
REMARK   26  A    between atoms: _58  and  _60
REMARK   27  A    between atoms: _60  and  _61
REMARK   28  A    between atoms: _60  and  _63
REMARK   29  A    between atoms: _63  and  _64
REMARK   30  A    between atoms: _67  and  _69
REMARK   31  A    between atoms: _69  and  _70
REMARK   32  A    between atoms: _69  and  _72
REMARK   33  A    between atoms: _75  and  _77
REMARK   34  A    between atoms: _77  and  _78
REMARK   35  A    between atoms: _77  and  _80
REMARK   36  A    between atoms: _80  and  _81
REMARK   37  A    between atoms: _84  and  _86
REMARK   38  A    between atoms: _86  and  _87
REMARK   39  A    between atoms: _86  and  _89
REMARK   40  A    between atoms: _89  and  _90
REMARK   41  A    between atoms: _93  and  _95
REMARK   42  A    between atoms: _95  and  _96
REMARK   43  A    between atoms: _98  and  _100
REMARK   44  A    between atoms: _100  and  _101
REMARK   45  A    between atoms: _100  and  _103
REMARK   46  A    between atoms: _103  and  _104
REMARK   47  A    between atoms: _106  and  _108
REMARK   48  A    between atoms: _108  and  _109
REMARK   49  A    between atoms: _108  and  _111
REMARK   50  A    between atoms: _111  and  _112
REMARK   51  A    between atoms: _114  and  _116
REMARK   52  A    between atoms: _116  and  _117
REMARK   53  A    between atoms: _116  and  _119
REMARK   54  A    between atoms: _119  and  _120
REMARK   55  A    between atoms: _125  and  _127
REMARK   56  A    between atoms: _127  and  _128
REMARK   57  A    between atoms: _127  and  _130
REMARK   58  A    between atoms: _130  and  _131
REMARK   59  A    between atoms: _136  and  _137
REMARK   60  A    between atoms: _139  and  _141
REMARK   61  A    between atoms: _141  and  _142
REMARK   62  A    between atoms: _141  and  _144
REMARK   63  A    between atoms: _148  and  _149
REMARK   64  A    between atoms: _154  and  _156
REMARK   65  A    between atoms: _156  and  _157
REMARK   66  A    between atoms: _156  and  _159
REMARK   67  A    between atoms: _159  and  _160
REMARK   68  A    between atoms: _165  and  _166
REMARK   69  A    between atoms: _168  and  _170
REMARK   70  A    between atoms: _170  and  _171
REMARK   71  A    between atoms: _170  and  _173
REMARK   72  A    between atoms: _173  and  _174
REMARK   73  A    between atoms: _177  and  _179
REMARK   74  A    between atoms: _179  and  _180
REMARK   75  A    between atoms: _179  and  _182
REMARK   76  A    between atoms: _182  and  _183
REMARK   77  A    between atoms: _183  and  _184
REMARK   78  A    between atoms: _189  and  _191
REMARK   79  A    between atoms: _191  and  _192
REMARK   80  A    between atoms: _194  and  _196
REMARK   81  A    between atoms: _196  and  _197
REMARK   82  A    between atoms: _196  and  _199
REMARK   83  A    between atoms: _199  and  _200
REMARK   84  A    between atoms: _200  and  _201
REMARK   85  A    between atoms: _201  and  _202
REMARK   86  A    between atoms: _202  and  _203
REMARK   87  A    between atoms: _207  and  _209
REMARK   88  A    between atoms: _209  and  _210
REMARK   89  A    between atoms: _209  and  _212
REMARK   90  A    between atoms: _212  and  _213
REMARK   91  A    between atoms: _223  and  _225
REMARK   92  A    between atoms: _225  and  _226
REMARK   93  A    between atoms: _225  and  _228
REMARK   94  A    between atoms: _228  and  _229
REMARK   95  A    between atoms: _232  and  _234
REMARK   96  A    between atoms: _234  and  _235
REMARK   97  A    between atoms: _234  and  _237
REMARK   98  A    between atoms: _237  and  _238
REMARK   99  A    between atoms: _238  and  _239
REMARK  100  A    between atoms: _239  and  _240
REMARK  101  A    between atoms: _240  and  _241
REMARK  102  A    between atoms: _245  and  _247
REMARK  103  A    between atoms: _247  and  _248
REMARK  104  A    between atoms: _247  and  _250
REMARK  105  A    between atoms: _250  and  _251
REMARK  106  A    between atoms: _257  and  _259
REMARK  107  A    between atoms: _259  and  _260
REMARK  108  A    between atoms: _259  and  _262
REMARK  109  A    between atoms: _262  and  _263
REMARK  110  A    between atoms: _269  and  _271
REMARK  111  A    between atoms: _271  and  _272
REMARK  112  A    between atoms: _271  and  _274
REMARK  113  A    between atoms: _274  and  _275
REMARK  114  A    between atoms: _278  and  _280
REMARK  115  A    between atoms: _280  and  _281
REMARK  116  A    between atoms: _280  and  _283
REMARK  117  A    between atoms: _283  and  _284
REMARK  118  A    between atoms: _286  and  _288
REMARK  119  A    between atoms: _288  and  _289
REMARK  120  A    between atoms: _288  and  _291
REMARK  121  A    between atoms: _291  and  _292
REMARK  122  A    between atoms: _302  and  _304
REMARK  123  A    between atoms: _304  and  _305
REMARK  124  A    between atoms: _307  and  _309
REMARK  125  A    between atoms: _309  and  _310
REMARK  126  A    between atoms: _309  and  _312
REMARK  127  A    between atoms: _312  and  _313
REMARK  128  A    between atoms: _316  and  _318
REMARK  129  A    between atoms: _318  and  _319
REMARK  130  A    between atoms: _318  and  _321
REMARK  131  A    between atoms: _321  and  _322
REMARK  132  A    between atoms: _325  and  _327
REMARK  133  A    between atoms: _327  and  _328
REMARK  134  A    between atoms: _327  and  _330
REMARK  135  A    between atoms: _330  and  _331
REMARK  136  A    between atoms: _334  and  _336
REMARK  137  A    between atoms: _336  and  _337
REMARK  138  A    between atoms: _340  and  _342
REMARK  139  A    between atoms: _342  and  _343
REMARK  140  A    between atoms: _342  and  _345
REMARK  141  A    between atoms: _345  and  _346
REMARK  142  A    between atoms: _351  and  _352
REMARK  143  A    between atoms: _354  and  _356
REMARK  144  A    between atoms: _356  and  _357
REMARK  145  A    between atoms: _360  and  _362
REMARK  146  A    between atoms: _362  and  _363
REMARK  147  A    between atoms: _362  and  _365
REMARK  148  A    between atoms: _365  and  _366
REMARK  149  A    between atoms: _366  and  _367
REMARK  150  A    between atoms: _370  and  _372
REMARK  151  A    between atoms: _372  and  _373
REMARK  152  A    between atoms: _372  and  _375
REMARK  153  A    between atoms: _375  and  _376
REMARK  154  A    between atoms: _379  and  _381
REMARK  155  A    between atoms: _381  and  _382
REMARK  156  A    between atoms: _385  and  _387
REMARK  157  A    between atoms: _387  and  _388
REMARK  158  A    between atoms: _387  and  _390
REMARK  159  A    between atoms: _390  and  _391
REMARK  160  A    between atoms: _391  and  _392
REMARK  161  A    between atoms: _392  and  _393
REMARK  162  A    between atoms: _403  and  _404
REMARK  163  A    between atoms: _409  and  _411
REMARK  164  A    between atoms: _411  and  _412
REMARK  165  A    between atoms: _411  and  _414
REMARK  166  A    between atoms: _414  and  _415
REMARK  167  A    between atoms: _418  and  _420
REMARK  168  A    between atoms: _420  and  _421
REMARK  169  A    between atoms: _420  and  _423
REMARK  170  A    between atoms: _423  and  _424
REMARK  171  A    between atoms: _427  and  _429
REMARK  172  A    between atoms: _429  and  _430
REMARK  173  A    between atoms: _429  and  _432
REMARK  174  A    between atoms: _432  and  _433
REMARK  175  A    between atoms: _433  and  _434
REMARK  176  A    between atoms: _434  and  _435
REMARK  177  A    between atoms: _444  and  _446
REMARK  178  A    between atoms: _446  and  _447
REMARK  179  A    between atoms: _446  and  _449
REMARK  180  A    between atoms: _449  and  _450
REMARK  181  A    between atoms: _460  and  _462
REMARK  182  A    between atoms: _462  and  _463
REMARK  183  A    between atoms: _462  and  _465
REMARK  184  A    between atoms: _465  and  _466
REMARK  185  A    between atoms: _471  and  _472
REMARK  186  A    between atoms: _474  and  _476
REMARK  187  A    between atoms: _476  and  _477
REMARK  188  A    between atoms: _476  and  _479
REMARK  189  A    between atoms: _479  and  _480
REMARK  190  A    between atoms: _480  and  _481
REMARK  191  A    between atoms: _481  and  _482
REMARK  192  A    between atoms: _482  and  _483
REMARK  193  A    between atoms: _487  and  _489
REMARK  194  A    between atoms: _489  and  _490
REMARK  195  A    between atoms: _489  and  _492
REMARK  196  A    between atoms: _492  and  _493
REMARK  197  A    between atoms: _496  and  _498
REMARK  198  A    between atoms: _498  and  _499
REMARK  199  A    between atoms: _498  and  _501
REMARK  200  A    between atoms: _504  and  _506
REMARK  201  A    between atoms: _506  and  _507
REMARK  202  A    between atoms: _506  and  _509
REMARK  203  A    between atoms: _509  and  _510
REMARK  204  A    between atoms: _513  and  _515
REMARK  205  A    between atoms: _515  and  _516
REMARK  206  A    between atoms: _515  and  _518
REMARK  207  A    between atoms: _518  and  _519
REMARK  208  A    between atoms: _521  and  _523
REMARK  209  A    between atoms: _523  and  _524
REMARK  210  A    between atoms: _526  and  _528
REMARK  211  A    between atoms: _528  and  _529
REMARK  212  A    between atoms: _528  and  _531
REMARK  213  A    between atoms: _531  and  _532
REMARK  214  A    between atoms: _535  and  _537
REMARK  215  A    between atoms: _537  and  _538
REMARK  216  A    between atoms: _537  and  _540
REMARK  217  A    between atoms: _540  and  _541
REMARK  218  A    between atoms: _544  and  _546
REMARK  219  A    between atoms: _546  and  _547
REMARK  220  A    between atoms: _546  and  _549
REMARK  221  A    between atoms: _549  and  _550
REMARK  222  A    between atoms: _555  and  _557
REMARK  223  A    between atoms: _557  and  _558
REMARK  224  A    between atoms: _557  and  _560
REMARK  225  A    between atoms: _560  and  _561
REMARK  226  A    between atoms: _564  and  _566
REMARK  227  A    between atoms: _566  and  _567
REMARK  228  A    between atoms: _566  and  _569
REMARK  229  A    between atoms: _569  and  _570
REMARK  230  A    between atoms: _570  and  _571
REMARK  231  A    between atoms: _571  and  _572
REMARK  232  A    between atoms: _581  and  _583
REMARK  233  A    between atoms: _583  and  _584
REMARK  234  A    between atoms: _586  and  _588
REMARK  235  A    between atoms: _588  and  _589
REMARK  236  A    between atoms: _588  and  _591
REMARK  237  A    between atoms: _591  and  _592
REMARK  238  A    between atoms: _592  and  _593
REMARK  239  A    between atoms: _596  and  _598
REMARK  240  A    between atoms: _598  and  _599
REMARK  241  A    between atoms: _598  and  _601
REMARK  242  A    between atoms: _601  and  _602
REMARK  243  A    between atoms: _602  and  _603
REMARK  244  A    between atoms: _603  and  _604
REMARK  245  A    between atoms: _614  and  _615
REMARK  246  A    between atoms: _620  and  _622
REMARK  247  A    between atoms: _622  and  _623
REMARK  248  A    between atoms: _622  and  _625
REMARK  249  A    between atoms: _628  and  _630
REMARK  250  A    between atoms: _630  and  _631
REMARK  251  A    between atoms: _630  and  _633
REMARK  252  A    between atoms: _633  and  _634
REMARK  253  A    between atoms: _634  and  _635
REMARK  254  A    between atoms: _638  and  _640
REMARK  255  A    between atoms: _640  and  _641
REMARK  256  A    between atoms: _640  and  _643
REMARK  257  A    between atoms: _643  and  _644
REMARK  258  A    between atoms: _644  and  _645
REMARK  259  A    between atoms: _645  and  _646
REMARK  260  A    between atoms: _646  and  _647
REMARK  261  A    between atoms: _651  and  _653
REMARK  262  A    between atoms: _653  and  _654
REMARK  263  A    between atoms: _657  and  _659
REMARK  264  A    between atoms: _659  and  _660
REMARK  265  A    between atoms: _659  and  _662
REMARK  266  A    between atoms: _662  and  _663
REMARK  267  A    between atoms: _665  and  _667
REMARK  268  A    between atoms: _667  and  _668
REMARK  269  A    between atoms: _667  and  _670
REMARK  270  A    between atoms: _670  and  _671
REMARK  271  A    between atoms: _671  and  _672
REMARK  272  A    between atoms: _677  and  _679
REMARK  273  A    between atoms: _679  and  _680
REMARK  274  A    between atoms: _679  and  _682
REMARK  275  A    between atoms: _682  and  _683
REMARK  276  A    between atoms: _685  and  _687
REMARK  277  A    between atoms: _687  and  _688
REMARK  278  A    between atoms: _687  and  _690
REMARK  279  A    between atoms: _690  and  _691
REMARK  280  A    between atoms: _694  and  _696
REMARK  281  A    between atoms: _696  and  _697
REMARK  282  A    between atoms: _696  and  _699
REMARK  283  A    between atoms: _699  and  _700
REMARK  284  A    between atoms: _703  and  _705
REMARK  285  A    between atoms: _705  and  _706
REMARK  286  A    between atoms: _705  and  _708
REMARK  287  A    between atoms: _711  and  _713
REMARK  288  A    between atoms: _713  and  _714
REMARK  289  A    between atoms: _716  and  _718
REMARK  290  A    between atoms: _718  and  _719
REMARK  291  A    between atoms: _722  and  _724
REMARK  292  A    between atoms: _724  and  _725
REMARK  293  A    between atoms: _724  and  _727
REMARK                            x       y       z     vdW  Elec       q    Type
REMARK                         _______ _______ _______ _____ _____    ______ ____
ROOT
ATOM      1  CA  PHE A   3      19.844  30.623  14.939  0.00  0.00    +0.153 C 
ENDROOT
BRANCH   1   4
ATOM      2  C   LYS A   2      19.325  28.272  15.201  0.00  0.00    +0.241 C 
ATOM      3  O   LYS A   2      18.929  28.444  16.347  0.00  0.00    -0.273 OA
ATOM      4  N   PHE A   3      19.799  29.258  14.449  0.00  0.00    -0.297 N 
ATOM      5  H   PHE A   3      20.145  29.048  13.491  0.00  0.00    +0.150 HD
BRANCH   2   6
ATOM      6  CA  LYS A   2      19.302  26.885  14.572  0.00  0.00    +0.149 C 
BRANCH   6   9
ATOM      7  C   ASP A   1      21.619  26.953  13.783  0.00  0.00    +0.239 C 
ATOM      8  O   ASP A   1      22.049  27.297  14.889  0.00  0.00    -0.274 OA
ATOM      9  N   LYS A   2      20.328  26.732  13.537  0.00  0.00    -0.297 N 
ATOM     10  H   LYS A   2      20.040  26.442  12.581  0.00  0.00    +0.150 HD
BRANCH   7  11
ATOM     11  CA  ASP A   1      22.573  26.748  12.611  0.00  0.00    +0.156 C 
BRANCH  11  12
ATOM     12  N   ASP A   1      23.263  27.981  12.256  0.00  0.00    -0.238 NA
ATOM     13  H   ASP A   1      23.634  28.588  13.015  0.00  0.00    +0.142 HD
ENDBRANCH  11  12
BRANCH  11  14
ATOM     14  CB  ASP A   1      23.574  25.647  12.971  0.00  0.00    +0.140 C 
BRANCH  14  15
ATOM     15  CG  ASP A   1      22.885  24.393  13.515  0.00  0.00    +0.367 C 
ATOM     16  OD2 ASP A   1      23.227  23.950  14.633  0.00  0.00    -0.246 OA
ATOM     17  OD1 ASP A   1      21.995  23.854  12.827  0.00  0.00    -0.246 OA
ENDBRANCH  14  15
ENDBRANCH  11  14
ENDBRANCH   7  11
ENDBRANCH   6   9
BRANCH   6  18
ATOM     18  CB  LYS A   2      19.475  25.826  15.671  0.00  0.00    +0.029 C 
BRANCH  18  19
ATOM     19  CG  LYS A   2      19.233  24.401  15.187  0.00  0.00    +0.000 C 
BRANCH  19  20
ATOM     20  CD  LYS A   2      19.640  23.388  16.231  0.00  0.00    -0.024 C 
BRANCH  20  21
ATOM     21  CE  LYS A   2      19.391  21.969  15.747  0.00  0.00    -0.086 C 
BRANCH  21  22
ATOM     22  NZ  LYS A   2      19.773  20.959  16.776  0.00  0.00    +0.380 N 
ATOM     23  HZ1 LYS A   2      19.212  21.114  17.638  0.00  0.00    -0.089 HD
ATOM     24  HZ2 LYS A   2      20.784  21.057  16.997  0.00  0.00    -0.089 HD
ATOM     25  HZ3 LYS A   2      19.588  20.004  16.408  0.00  0.00    -0.089 HD
ENDBRANCH  21  22
ENDBRANCH  20  21
ENDBRANCH  19  20
ENDBRANCH  18  19
ENDBRANCH   6  18
ENDBRANCH   2   6
ENDBRANCH   1   4
BRANCH   1  26
ATOM     26  C   PHE A   3      18.573  31.339  14.508  0.00  0.00    +0.241 C 
ATOM     27  O   PHE A   3      17.772  31.753  15.345  0.00  0.00    -0.273 OA
ATOM     28  N   PHE A   4      18.376  31.479  13.202  0.00  0.00    -0.297 N 
ATOM     29  H   PHE A   4      19.080  31.102  12.536  0.00  0.00    +0.150 HD
BRANCH  28  30
ATOM     30  CA  PHE A   4      17.190  32.152  12.686  0.00  0.00    +0.153 C 
BRANCH  30  31
ATOM     31  C   PHE A   4      15.926  31.330  12.928  0.00  0.00    +0.241 C 
ATOM     32  N   ILE A   5      14.811  32.018  13.147  0.00  0.00    -0.298 N 
ATOM     33  H   ILE A   5      14.844  33.057  13.114  0.00  0.00    +0.150 HD
ATOM     34  O   PHE A   4      15.957  30.105  12.904  0.00  0.00    -0.273 OA
BRANCH  32  35
ATOM     35  CA  ILE A   5      13.548  31.363  13.431  0.00  0.00    +0.137 C 
BRANCH  35  36
ATOM     36  C   ILE A   5      12.521  31.609  12.340  0.00  0.00    +0.227 C 
ATOM     37  O   ILE A   5      12.319  32.741  11.903  0.00  0.00    -0.286 OA
ENDBRANCH  35  36
BRANCH  35  38
ATOM     38  CB  ILE A   5      12.946  31.894  14.748  0.00  0.00    +0.026 C 
ATOM     39  CG2 ILE A   5      11.779  31.020  15.182  0.00  0.00    +0.002 C 
BRANCH  38  40
ATOM     40  CG1 ILE A   5      14.014  31.926  15.838  0.00  0.00    +0.002 C 
ATOM     41  CD1 ILE A   5      13.627  32.792  17.033  0.00  0.00    +0.000 C 
ENDBRANCH  38  40
ENDBRANCH  35  38
ENDBRANCH  32  35
ENDBRANCH  30  31
BRANCH  30  42
ATOM     42  CB  PHE A   4      17.351  32.457  11.190  0.00  0.00    +0.055 C 
BRANCH  42  43
ATOM     43  CG  PHE A   4      18.486  33.399  10.889  0.00  0.00    -0.020 A 
ATOM     44  CD2 PHE A   4      18.393  34.742  11.235  0.00  0.00    -0.004 A 
ATOM     45  CE2 PHE A   4      19.447  35.611  11.009  0.00  0.00    -0.000 A 
ATOM     46  CZ  PHE A   4      20.613  35.141  10.428  0.00  0.00    -0.000 A 
ATOM     47  CE1 PHE A   4      20.714  33.793  10.075  0.00  0.00    -0.000 A 
ATOM     48  CD1 PHE A   4      19.657  32.939  10.307  0.00  0.00    -0.004 A 
ENDBRANCH  42  43
ENDBRANCH  30  42
ENDBRANCH  28  30
ENDBRANCH   1  26
BRANCH   1  49
ATOM     49  CB  PHE A   3      21.060  31.345  14.378  0.00  0.00    +0.055 C 
BRANCH  49  50
ATOM     50  CG  PHE A   3      21.201  32.755  14.860  0.00  0.00    -0.020 A 
ATOM     51  CD2 PHE A   3      21.474  33.020  16.197  0.00  0.00    -0.004 A 
ATOM     52  CE2 PHE A   3      21.613  34.330  16.651  0.00  0.00    -0.000 A 
ATOM     53  CZ  PHE A   3      21.480  35.390  15.769  0.00  0.00    -0.000 A 
ATOM     54  CE1 PHE A   3      21.205  35.146  14.431  0.00  0.00    -0.000 A 
ATOM     55  CD1 PHE A   3      21.065  33.823  13.980  0.00  0.00    -0.004 A 
ENDBRANCH  49  50
ENDBRANCH   1  49
TORSDOF 23
REMARK  Name = ../refined-set-2016/1m4h/1m4h_pocket.pdb
REMARK  293 active torsions:
REMARK  status: ('A' for Active; 'I' for Inactive)
REMARK    1  A    between atoms: _1  and  _3
REMARK    2  A    between atoms: _3  and  _4
REMARK    3  A    between atoms: _3  and  _6
REMARK    4  A    between atoms: _6  and  _7
REMARK    5  A    between atoms: _7  and  _8
REMARK    6  A    between atoms: _8  and  _9
REMARK    7  A    between atoms: _9  and  _10
REMARK    8  A    between atoms: _14  and  _16
REMARK    9  A    between atoms: _16  and  _17
REMARK   10  A    between atoms: _16  and  _19
REMARK   11  A    between atoms: _19  and  _20
REMARK   12  A    between atoms: _22  and  _24
REMARK   13  A    between atoms: _24  and  _25
REMARK   14  A    between atoms: _27  and  _29
REMARK   15  A    between atoms: _29  and  _30
REMARK   16  A    between atoms: _29  and  _32
REMARK   17  A    between atoms: _32  and  _33
REMARK   18  A    between atoms: _33  and  _34
REMARK   19  A    between atoms: _39  and  _41
REMARK   20  A    between atoms: _41  and  _42
REMARK   21  A    between atoms: _44  and  _46
REMARK   22  A    between atoms: _46  and  _47
REMARK   23  A    between atoms: _46  and  _49
REMARK   24  A    between atoms: _49  and  _50
REMARK   25  A    between atoms: _55  and  _56
REMARK   26  A    between atoms: _58  and  _60
REMARK   27  A    between atoms: _60  and  _61
REMARK   28  A    between atoms: _60  and  _63
REMARK   29  A    between atoms: _63  and  _64
REMARK   30  A    between atoms: _67  and  _69
REMARK   31  A    between atoms: _69  and  _70
REMARK   32  A    between atoms: _69  and  _72
REMARK   33  A    between atoms: _75  and  _77
REMARK   34  A    between atoms: _77  and  _78
REMARK   35  A    between atoms: _77  and  _80
REMARK   36  A    between atoms: _80  and  _81
REMARK   37  A    between atoms: _84  and  _86
REMARK   38  A    between atoms: _86  and  _87
REMARK   39  A    between atoms: _86  and  _89
REMARK   40  A    between atoms: _89  and  _90
REMARK   41  A    between atoms: _93  and  _95
REMARK   42  A    between atoms: _95  and  _96
REMARK   43  A    between atoms: _98  and  _100
REMARK   44  A    between atoms: _100  and  _101
REMARK   45  A    between atoms: _100  and  _103
REMARK   46  A    between atoms: _103  and  _104
REMARK   47  A    between atoms: _106  and  _108
REMARK   48  A    between atoms: _108  and  _109
REMARK   49  A    between atoms: _108  and  _111
REMARK   50  A    between atoms: _111  and  _112
REMARK   51  A    between atoms: _114  and  _116
REMARK   52  A    between atoms: _116  and  _117
REMARK   53  A    between atoms: _116  and  _119
REMARK   54  A    between atoms: _119  and  _120
REMARK   55  A    between atoms: _125  and  _127
REMARK   56  A    between atoms: _127  and  _128
REMARK   57  A    between atoms: _127  and  _130
REMARK   58  A    between atoms: _130  and  _131
REMARK   59  A    between atoms: _136  and  _137
REMARK   60  A    between atoms: _139  and  _141
REMARK   61  A    between atoms: _141  and  _142
REMARK   62  A    between atoms: _141  and  _144
REMARK   63  A    between atoms: _148  and  _149
REMARK   64  A    between atoms: _154  and  _156
REMARK   65  A    between atoms: _156  and  _157
REMARK   66  A    between atoms: _156  and  _159
REMARK   67  A    between atoms: _159  and  _160
REMARK   68  A    between atoms: _165  and  _166
REMARK   69  A    between atoms: _168  and  _170
REMARK   70  A    between atoms: _170  and  _171
REMARK   71  A    between atoms: _170  and  _173
REMARK   72  A    between atoms: _173  and  _174
REMARK   73  A    between atoms: _177  and  _179
REMARK   74  A    between atoms: _179  and  _180
REMARK   75  A    between atoms: _179  and  _182
REMARK   76  A    between atoms: _182  and  _183
REMARK   77  A    between atoms: _183  and  _184
REMARK   78  A    between atoms: _189  and  _191
REMARK   79  A    between atoms: _191  and  _192
REMARK   80  A    between atoms: _194  and  _196
REMARK   81  A    between atoms: _196  and  _197
REMARK   82  A    between atoms: _196  and  _199
REMARK   83  A    between atoms: _199  and  _200
REMARK   84  A    between atoms: _200  and  _201
REMARK   85  A    between atoms: _201  and  _202
REMARK   86  A    between atoms: _202  and  _203
REMARK   87  A    between atoms: _207  and  _209
REMARK   88  A    between atoms: _209  and  _210
REMARK   89  A    between atoms: _209  and  _212
REMARK   90  A    between atoms: _212  and  _213
REMARK   91  A    between atoms: _223  and  _225
REMARK   92  A    between atoms: _225  and  _226
REMARK   93  A    between atoms: _225  and  _228
REMARK   94  A    between atoms: _228  and  _229
REMARK   95  A    between atoms: _232  and  _234
REMARK   96  A    between atoms: _234  and  _235
REMARK   97  A    between atoms: _234  and  _237
REMARK   98  A    between atoms: _237  and  _238
REMARK   99  A    between atoms: _238  and  _239
REMARK  100  A    between atoms: _239  and  _240
REMARK  101  A    between atoms: _240  and  _241
REMARK  102  A    between atoms: _245  and  _247
REMARK  103  A    between atoms: _247  and  _248
REMARK  104  A    between atoms: _247  and  _250
REMARK  105  A    between atoms: _250  and  _251
REMARK  106  A    between atoms: _257  and  _259
REMARK  107  A    between atoms: _259  and  _260
REMARK  108  A    between atoms: _259  and  _262
REMARK  109  A    between atoms: _262  and  _263
REMARK  110  A    between atoms: _269  and  _271
REMARK  111  A    between atoms: _271  and  _272
REMARK  112  A    between atoms: _271  and  _274
REMARK  113  A    between atoms: _274  and  _275
REMARK  114  A    between atoms: _278  and  _280
REMARK  115  A    between atoms: _280  and  _281
REMARK  116  A    between atoms: _280  and  _283
REMARK  117  A    between atoms: _283  and  _284
REMARK  118  A    between atoms: _286  and  _288
REMARK  119  A    between atoms: _288  and  _289
REMARK  120  A    between atoms: _288  and  _291
REMARK  121  A    between atoms: _291  and  _292
REMARK  122  A    between atoms: _302  and  _304
REMARK  123  A    between atoms: _304  and  _305
REMARK  124  A    between atoms: _307  and  _309
REMARK  125  A    between atoms: _309  and  _310
REMARK  126  A    between atoms: _309  and  _312
REMARK  127  A    between atoms: _312  and  _313
REMARK  128  A    between atoms: _316  and  _318
REMARK  129  A    between atoms: _318  and  _319
REMARK  130  A    between atoms: _318  and  _321
REMARK  131  A    between atoms: _321  and  _322
REMARK  132  A    between atoms: _325  and  _327
REMARK  133  A    between atoms: _327  and  _328
REMARK  134  A    between atoms: _327  and  _330
REMARK  135  A    between atoms: _330  and  _331
REMARK  136  A    between atoms: _334  and  _336
REMARK  137  A    between atoms: _336  and  _337
REMARK  138  A    between atoms: _340  and  _342
REMARK  139  A    between atoms: _342  and  _343
REMARK  140  A    between atoms: _342  and  _345
REMARK  141  A    between atoms: _345  and  _346
REMARK  142  A    between atoms: _351  and  _352
REMARK  143  A    between atoms: _354  and  _356
REMARK  144  A    between atoms: _356  and  _357
REMARK  145  A    between atoms: _360  and  _362
REMARK  146  A    between atoms: _362  and  _363
REMARK  147  A    between atoms: _362  and  _365
REMARK  148  A    between atoms: _365  and  _366
REMARK  149  A    between atoms: _366  and  _367
REMARK  150  A    between atoms: _370  and  _372
REMARK  151  A    between atoms: _372  and  _373
REMARK  152  A    between atoms: _372  and  _375
REMARK  153  A    between atoms: _375  and  _376
REMARK  154  A    between atoms: _379  and  _381
REMARK  155  A    between atoms: _381  and  _382
REMARK  156  A    between atoms: _385  and  _387
REMARK  157  A    between atoms: _387  and  _388
REMARK  158  A    between atoms: _387  and  _390
REMARK  159  A    between atoms: _390  and  _391
REMARK  160  A    between atoms: _391  and  _392
REMARK  161  A    between atoms: _392  and  _393
REMARK  162  A    between atoms: _403  and  _404
REMARK  163  A    between atoms: _409  and  _411
REMARK  164  A    between atoms: _411  and  _412
REMARK  165  A    between atoms: _411  and  _414
REMARK  166  A    between atoms: _414  and  _415
REMARK  167  A    between atoms: _418  and  _420
REMARK  168  A    between atoms: _420  and  _421
REMARK  169  A    between atoms: _420  and  _423
REMARK  170  A    between atoms: _423  and  _424
REMARK  171  A    between atoms: _427  and  _429
REMARK  172  A    between atoms: _429  and  _430
REMARK  173  A    between atoms: _429  and  _432
REMARK  174  A    between atoms: _432  and  _433
REMARK  175  A    between atoms: _433  and  _434
REMARK  176  A    between atoms: _434  and  _435
REMARK  177  A    between atoms: _444  and  _446
REMARK  178  A    between atoms: _446  and  _447
REMARK  179  A    between atoms: _446  and  _449
REMARK  180  A    between atoms: _449  and  _450
REMARK  181  A    between atoms: _460  and  _462
REMARK  182  A    between atoms: _462  and  _463
REMARK  183  A    between atoms: _462  and  _465
REMARK  184  A    between atoms: _465  and  _466
REMARK  185  A    between atoms: _471  and  _472
REMARK  186  A    between atoms: _474  and  _476
REMARK  187  A    between atoms: _476  and  _477
REMARK  188  A    between atoms: _476  and  _479
REMARK  189  A    between atoms: _479  and  _480
REMARK  190  A    between atoms: _480  and  _481
REMARK  191  A    between atoms: _481  and  _482
REMARK  192  A    between atoms: _482  and  _483
REMARK  193  A    between atoms: _487  and  _489
REMARK  194  A    between atoms: _489  and  _490
REMARK  195  A    between atoms: _489  and  _492
REMARK  196  A    between atoms: _492  and  _493
REMARK  197  A    between atoms: _496  and  _498
REMARK  198  A    between atoms: _498  and  _499
REMARK  199  A    between atoms: _498  and  _501
REMARK  200  A    between atoms: _504  and  _506
REMARK  201  A    between atoms: _506  and  _507
REMARK  202  A    between atoms: _506  and  _509
REMARK  203  A    between atoms: _509  and  _510
REMARK  204  A    between atoms: _513  and  _515
REMARK  205  A    between atoms: _515  and  _516
REMARK  206  A    between atoms: _515  and  _518
REMARK  207  A    between atoms: _518  and  _519
REMARK  208  A    between atoms: _521  and  _523
REMARK  209  A    between atoms: _523  and  _524
REMARK  210  A    between atoms: _526  and  _528
REMARK  211  A    between atoms: _528  and  _529
REMARK  212  A    between atoms: _528  and  _531
REMARK  213  A    between atoms: _531  and  _532
REMARK  214  A    between atoms: _535  and  _537
REMARK  215  A    between atoms: _537  and  _538
REMARK  216  A    between atoms: _537  and  _540
REMARK  217  A    between atoms: _540  and  _541
REMARK  218  A    between atoms: _544  and  _546
REMARK  219  A    between atoms: _546  and  _547
REMARK  220  A    between atoms: _546  and  _549
REMARK  221  A    between atoms: _549  and  _550
REMARK  222  A    between atoms: _555  and  _557
REMARK  223  A    between atoms: _557  and  _558
REMARK  224  A    between atoms: _557  and  _560
REMARK  225  A    between atoms: _560  and  _561
REMARK  226  A    between atoms: _564  and  _566
REMARK  227  A    between atoms: _566  and  _567
REMARK  228  A    between atoms: _566  and  _569
REMARK  229  A    between atoms: _569  and  _570
REMARK  230  A    between atoms: _570  and  _571
REMARK  231  A    between atoms: _571  and  _572
REMARK  232  A    between atoms: _581  and  _583
REMARK  233  A    between atoms: _583  and  _584
REMARK  234  A    between atoms: _586  and  _588
REMARK  235  A    between atoms: _588  and  _589
REMARK  236  A    between atoms: _588  and  _591
REMARK  237  A    between atoms: _591  and  _592
REMARK  238  A    between atoms: _592  and  _593
REMARK  239  A    between atoms: _596  and  _598
REMARK  240  A    between atoms: _598  and  _599
REMARK  241  A    between atoms: _598  and  _601
REMARK  242  A    between atoms: _601  and  _602
REMARK  243  A    between atoms: _602  and  _603
REMARK  244  A    between atoms: _603  and  _604
REMARK  245  A    between atoms: _614  and  _615
REMARK  246  A    between atoms: _620  and  _622
REMARK  247  A    between atoms: _622  and  _623
REMARK  248  A    between atoms: _622  and  _625
REMARK  249  A    between atoms: _628  and  _630
REMARK  250  A    between atoms: _630  and  _631
REMARK  251  A    between atoms: _630  and  _633
REMARK  252  A    between atoms: _633  and  _634
REMARK  253  A    between atoms: _634  and  _635
REMARK  254  A    between atoms: _638  and  _640
REMARK  255  A    between atoms: _640  and  _641
REMARK  256  A    between atoms: _640  and  _643
REMARK  257  A    between atoms: _643  and  _644
REMARK  258  A    between atoms: _644  and  _645
REMARK  259  A    between atoms: _645  and  _646
REMARK  260  A    between atoms: _646  and  _647
REMARK  261  A    between atoms: _651  and  _653
REMARK  262  A    between atoms: _653  and  _654
REMARK  263  A    between atoms: _657  and  _659
REMARK  264  A    between atoms: _659  and  _660
REMARK  265  A    between atoms: _659  and  _662
REMARK  266  A    between atoms: _662  and  _663
REMARK  267  A    between atoms: _665  and  _667
REMARK  268  A    between atoms: _667  and  _668
REMARK  269  A    between atoms: _667  and  _670
REMARK  270  A    between atoms: _670  and  _671
REMARK  271  A    between atoms: _671  and  _672
REMARK  272  A    between atoms: _677  and  _679
REMARK  273  A    between atoms: _679  and  _680
REMARK  274  A    between atoms: _679  and  _682
REMARK  275  A    between atoms: _682  and  _683
REMARK  276  A    between atoms: _685  and  _687
REMARK  277  A    between atoms: _687  and  _688
REMARK  278  A    between atoms: _687  and  _690
REMARK  279  A    between atoms: _690  and  _691
REMARK  280  A    between atoms: _694  and  _696
REMARK  281  A    between atoms: _696  and  _697
REMARK  282  A    between atoms: _696  and  _699
REMARK  283  A    between atoms: _699  and  _700
REMARK  284  A    between atoms: _703  and  _705
REMARK  285  A    between atoms: _705  and  _706
REMARK  286  A    between atoms: _705  and  _708
REMARK  287  A    between atoms: _711  and  _713
REMARK  288  A    between atoms: _713  and  _714
REMARK  289  A    between atoms: _716  and  _718
REMARK  290  A    between atoms: _718  and  _719
REMARK  291  A    between atoms: _722  and  _724
REMARK  292  A    between atoms: _724  and  _725
REMARK  293  A    between atoms: _724  and  _727
REMARK                            x       y       z     vdW  Elec       q    Type
REMARK                         _______ _______ _______ _____ _____    ______ ____
ROOT
ATOM      1  CA  SER A   1       9.993  35.748  13.739  0.00  0.00    +0.163 C 
ENDROOT
BRANCH   1   2
ATOM      2  N   SER A   1       9.802  34.876  12.573  0.00  0.00    -0.237 NA
ATOM      3  H   SER A   1      10.626  34.555  12.026  0.00  0.00    +0.142 HD
ENDBRANCH   1   2
BRANCH   1   4
ATOM      4  CB  SER A   1      10.063  37.187  13.232  0.00  0.00    +0.227 C 
ATOM      5  OG  SER A   1       9.811  38.150  13.960  0.00  0.00    -0.287 OA
ENDBRANCH   1   4
BRANCH   1   6
ATOM      6  C   SER A   1      11.293  35.404  14.459  0.00  0.00    +0.162 C 
BRANCH   6   7
ATOM      7  O   SER A   1      12.391  35.541  13.574  0.00  0.00    -0.380 OA
ATOM      8  H   SER A   1      13.228  35.315  14.052  0.00  0.00    +0.211 HD
ENDBRANCH   6   7
ENDBRANCH   1   6
TORSDOF 4
REMARK  Name = ../refined-set-2016/1m4h/1m4h_pocket.pdb
REMARK  293 active torsions:
REMARK  status: ('A' for Active; 'I' for Inactive)
REMARK    1  A    between atoms: _1  and  _3
REMARK    2  A    between atoms: _3  and  _4
REMARK    3  A    between atoms: _3  and  _6
REMARK    4  A    between atoms: _6  and  _7
REMARK    5  A    between atoms: _7  and  _8
REMARK    6  A    between atoms: _8  and  _9
REMARK    7  A    between atoms: _9  and  _10
REMARK    8  A    between atoms: _14  and  _16
REMARK    9  A    between atoms: _16  and  _17
REMARK   10  A    between atoms: _16  and  _19
REMARK   11  A    between atoms: _19  and  _20
REMARK   12  A    between atoms: _22  and  _24
REMARK   13  A    between atoms: _24  and  _25
REMARK   14  A    between atoms: _27  and  _29
REMARK   15  A    between atoms: _29  and  _30
REMARK   16  A    between atoms: _29  and  _32
REMARK   17  A    between atoms: _32  and  _33
REMARK   18  A    between atoms: _33  and  _34
REMARK   19  A    between atoms: _39  and  _41
REMARK   20  A    between atoms: _41  and  _42
REMARK   21  A    between atoms: _44  and  _46
REMARK   22  A    between atoms: _46  and  _47
REMARK   23  A    between atoms: _46  and  _49
REMARK   24  A    between atoms: _49  and  _50
REMARK   25  A    between atoms: _55  and  _56
REMARK   26  A    between atoms: _58  and  _60
REMARK   27  A    between atoms: _60  and  _61
REMARK   28  A    between atoms: _60  and  _63
REMARK   29  A    between atoms: _63  and  _64
REMARK   30  A    between atoms: _67  and  _69
REMARK   31  A    between atoms: _69  and  _70
REMARK   32  A    between atoms: _69  and  _72
REMARK   33  A    between atoms: _75  and  _77
REMARK   34  A    between atoms: _77  and  _78
REMARK   35  A    between atoms: _77  and  _80
REMARK   36  A    between atoms: _80  and  _81
REMARK   37  A    between atoms: _84  and  _86
REMARK   38  A    between atoms: _86  and  _87
REMARK   39  A    between atoms: _86  and  _89
REMARK   40  A    between atoms: _89  and  _90
REMARK   41  A    between atoms: _93  and  _95
REMARK   42  A    between atoms: _95  and  _96
REMARK   43  A    between atoms: _98  and  _100
REMARK   44  A    between atoms: _100  and  _101
REMARK   45  A    between atoms: _100  and  _103
REMARK   46  A    between atoms: _103  and  _104
REMARK   47  A    between atoms: _106  and  _108
REMARK   48  A    between atoms: _108  and  _109
REMARK   49  A    between atoms: _108  and  _111
REMARK   50  A    between atoms: _111  and  _112
REMARK   51  A    between atoms: _114  and  _116
REMARK   52  A    between atoms: _116  and  _117
REMARK   53  A    between atoms: _116  and  _119
REMARK   54  A    between atoms: _119  and  _120
REMARK   55  A    between atoms: _125  and  _127
REMARK   56  A    between atoms: _127  and  _128
REMARK   57  A    between atoms: _127  and  _130
REMARK   58  A    between atoms: _130  and  _131
REMARK   59  A    between atoms: _136  and  _137
REMARK   60  A    between atoms: _139  and  _141
REMARK   61  A    between atoms: _141  and  _142
REMARK   62  A    between atoms: _141  and  _144
REMARK   63  A    between atoms: _148  and  _149
REMARK   64  A    between atoms: _154  and  _156
REMARK   65  A    between atoms: _156  and  _157
REMARK   66  A    between atoms: _156  and  _159
REMARK   67  A    between atoms: _159  and  _160
REMARK   68  A    between atoms: _165  and  _166
REMARK   69  A    between atoms: _168  and  _170
REMARK   70  A    between atoms: _170  and  _171
REMARK   71  A    between atoms: _170  and  _173
REMARK   72  A    between atoms: _173  and  _174
REMARK   73  A    between atoms: _177  and  _179
REMARK   74  A    between atoms: _179  and  _180
REMARK   75  A    between atoms: _179  and  _182
REMARK   76  A    between atoms: _182  and  _183
REMARK   77  A    between atoms: _183  and  _184
REMARK   78  A    between atoms: _189  and  _191
REMARK   79  A    between atoms: _191  and  _192
REMARK   80  A    between atoms: _194  and  _196
REMARK   81  A    between atoms: _196  and  _197
REMARK   82  A    between atoms: _196  and  _199
REMARK   83  A    between atoms: _199  and  _200
REMARK   84  A    between atoms: _200  and  _201
REMARK   85  A    between atoms: _201  and  _202
REMARK   86  A    between atoms: _202  and  _203
REMARK   87  A    between atoms: _207  and  _209
REMARK   88  A    between atoms: _209  and  _210
REMARK   89  A    between atoms: _209  and  _212
REMARK   90  A    between atoms: _212  and  _213
REMARK   91  A    between atoms: _223  and  _225
REMARK   92  A    between atoms: _225  and  _226
REMARK   93  A    between atoms: _225  and  _228
REMARK   94  A    between atoms: _228  and  _229
REMARK   95  A    between atoms: _232  and  _234
REMARK   96  A    between atoms: _234  and  _235
REMARK   97  A    between atoms: _234  and  _237
REMARK   98  A    between atoms: _237  and  _238
REMARK   99  A    between atoms: _238  and  _239
REMARK  100  A    between atoms: _239  and  _240
REMARK  101  A    between atoms: _240  and  _241
REMARK  102  A    between atoms: _245  and  _247
REMARK  103  A    between atoms: _247  and  _248
REMARK  104  A    between atoms: _247  and  _250
REMARK  105  A    between atoms: _250  and  _251
REMARK  106  A    between atoms: _257  and  _259
REMARK  107  A    between atoms: _259  and  _260
REMARK  108  A    between atoms: _259  and  _262
REMARK  109  A    between atoms: _262  and  _263
REMARK  110  A    between atoms: _269  and  _271
REMARK  111  A    between atoms: _271  and  _272
REMARK  112  A    between atoms: _271  and  _274
REMARK  113  A    between atoms: _274  and  _275
REMARK  114  A    between atoms: _278  and  _280
REMARK  115  A    between atoms: _280  and  _281
REMARK  116  A    between atoms: _280  and  _283
REMARK  117  A    between atoms: _283  and  _284
REMARK  118  A    between atoms: _286  and  _288
REMARK  119  A    between atoms: _288  and  _289
REMARK  120  A    between atoms: _288  and  _291
REMARK  121  A    between atoms: _291  and  _292
REMARK  122  A    between atoms: _302  and  _304
REMARK  123  A    between atoms: _304  and  _305
REMARK  124  A    between atoms: _307  and  _309
REMARK  125  A    between atoms: _309  and  _310
REMARK  126  A    between atoms: _309  and  _312
REMARK  127  A    between atoms: _312  and  _313
REMARK  128  A    between atoms: _316  and  _318
REMARK  129  A    between atoms: _318  and  _319
REMARK  130  A    between atoms: _318  and  _321
REMARK  131  A    between atoms: _321  and  _322
REMARK  132  A    between atoms: _325  and  _327
REMARK  133  A    between atoms: _327  and  _328
REMARK  134  A    between atoms: _327  and  _330
REMARK  135  A    between atoms: _330  and  _331
REMARK  136  A    between atoms: _334  and  _336
REMARK  137  A    between atoms: _336  and  _337
REMARK  138  A    between atoms: _340  and  _342
REMARK  139  A    between atoms: _342  and  _343
REMARK  140  A    between atoms: _342  and  _345
REMARK  141  A    between atoms: _345  and  _346
REMARK  142  A    between atoms: _351  and  _352
REMARK  143  A    between atoms: _354  and  _356
REMARK  144  A    between atoms: _356  and  _357
REMARK  145  A    between atoms: _360  and  _362
REMARK  146  A    between atoms: _362  and  _363
REMARK  147  A    between atoms: _362  and  _365
REMARK  148  A    between atoms: _365  and  _366
REMARK  149  A    between atoms: _366  and  _367
REMARK  150  A    between atoms: _370  and  _372
REMARK  151  A    between atoms: _372  and  _373
REMARK  152  A    between atoms: _372  and  _375
REMARK  153  A    between atoms: _375  and  _376
REMARK  154  A    between atoms: _379  and  _381
REMARK  155  A    between atoms: _381  and  _382
REMARK  156  A    between atoms: _385  and  _387
REMARK  157  A    between atoms: _387  and  _388
REMARK  158  A    between atoms: _387  and  _390
REMARK  159  A    between atoms: _390  and  _391
REMARK  160  A    between atoms: _391  and  _392
REMARK  161  A    between atoms: _392  and  _393
REMARK  162  A    between atoms: _403  and  _404
REMARK  163  A    between atoms: _409  and  _411
REMARK  164  A    between atoms: _411  and  _412
REMARK  165  A    between atoms: _411  and  _414
REMARK  166  A    between atoms: _414  and  _415
REMARK  167  A    between atoms: _418  and  _420
REMARK  168  A    between atoms: _420  and  _421
REMARK  169  A    between atoms: _420  and  _423
REMARK  170  A    between atoms: _423  and  _424
REMARK  171  A    between atoms: _427  and  _429
REMARK  172  A    between atoms: _429  and  _430
REMARK  173  A    between atoms: _429  and  _432
REMARK  174  A    between atoms: _432  and  _433
REMARK  175  A    between atoms: _433  and  _434
REMARK  176  A    between atoms: _434  and  _435
REMARK  177  A    between atoms: _444  and  _446
REMARK  178  A    between atoms: _446  and  _447
REMARK  179  A    between atoms: _446  and  _449
REMARK  180  A    between atoms: _449  and  _450
REMARK  181  A    between atoms: _460  and  _462
REMARK  182  A    between atoms: _462  and  _463
REMARK  183  A    between atoms: _462  and  _465
REMARK  184  A    between atoms: _465  and  _466
REMARK  185  A    between atoms: _471  and  _472
REMARK  186  A    between atoms: _474  and  _476
REMARK  187  A    between atoms: _476  and  _477
REMARK  188  A    between atoms: _476  and  _479
REMARK  189  A    between atoms: _479  and  _480
REMARK  190  A    between atoms: _480  and  _481
REMARK  191  A    between atoms: _481  and  _482
REMARK  192  A    between atoms: _482  and  _483
REMARK  193  A    between atoms: _487  and  _489
REMARK  194  A    between atoms: _489  and  _490
REMARK  195  A    between atoms: _489  and  _492
REMARK  196  A    between atoms: _492  and  _493
REMARK  197  A    between atoms: _496  and  _498
REMARK  198  A    between atoms: _498  and  _499
REMARK  199  A    between atoms: _498  and  _501
REMARK  200  A    between atoms: _504  and  _506
REMARK  201  A    between atoms: _506  and  _507
REMARK  202  A    between atoms: _506  and  _509
REMARK  203  A    between atoms: _509  and  _510
REMARK  204  A    between atoms: _513  and  _515
REMARK  205  A    between atoms: _515  and  _516
REMARK  206  A    between atoms: _515  and  _518
REMARK  207  A    between atoms: _518  and  _519
REMARK  208  A    between atoms: _521  and  _523
REMARK  209  A    between atoms: _523  and  _524
REMARK  210  A    between atoms: _526  and  _528
REMARK  211  A    between atoms: _528  and  _529
REMARK  212  A    between atoms: _528  and  _531
REMARK  213  A    between atoms: _531  and  _532
REMARK  214  A    between atoms: _535  and  _537
REMARK  215  A    between atoms: _537  and  _538
REMARK  216  A    between atoms: _537  and  _540
REMARK  217  A    between atoms: _540  and  _541
REMARK  218  A    between atoms: _544  and  _546
REMARK  219  A    between atoms: _546  and  _547
REMARK  220  A    between atoms: _546  and  _549
REMARK  221  A    between atoms: _549  and  _550
REMARK  222  A    between atoms: _555  and  _557
REMARK  223  A    between atoms: _557  and  _558
REMARK  224  A    between atoms: _557  and  _560
REMARK  225  A    between atoms: _560  and  _561
REMARK  226  A    between atoms: _564  and  _566
REMARK  227  A    between atoms: _566  and  _567
REMARK  228  A    between atoms: _566  and  _569
REMARK  229  A    between atoms: _569  and  _570
REMARK  230  A    between atoms: _570  and  _571
REMARK  231  A    between atoms: _571  and  _572
REMARK  232  A    between atoms: _581  and  _583
REMARK  233  A    between atoms: _583  and  _584
REMARK  234  A    between atoms: _586  and  _588
REMARK  235  A    between atoms: _588  and  _589
REMARK  236  A    between atoms: _588  and  _591
REMARK  237  A    between atoms: _591  and  _592
REMARK  238  A    between atoms: _592  and  _593
REMARK  239  A    between atoms: _596  and  _598
REMARK  240  A    between atoms: _598  and  _599
REMARK  241  A    between atoms: _598  and  _601
REMARK  242  A    between atoms: _601  and  _602
REMARK  243  A    between atoms: _602  and  _603
REMARK  244  A    between atoms: _603  and  _604
REMARK  245  A    between atoms: _614  and  _615
REMARK  246  A    between atoms: _620  and  _622
REMARK  247  A    between atoms: _622  and  _623
REMARK  248  A    between atoms: _622  and  _625
REMARK  249  A    between atoms: _628  and  _630
REMARK  250  A    between atoms: _630  and  _631
REMARK  251  A    between atoms: _630  and  _633
REMARK  252  A    between atoms: _633  and  _634
REMARK  253  A    between atoms: _634  and  _635
REMARK  254  A    between atoms: _638  and  _640
REMARK  255  A    between atoms: _640  and  _641
REMARK  256  A    between atoms: _640  and  _643
REMARK  257  A    between atoms: _643  and  _644
REMARK  258  A    between atoms: _644  and  _645
REMARK  259  A    between atoms: _645  and  _646
REMARK  260  A    between atoms: _646  and  _647
REMARK  261  A    between atoms: _651  and  _653
REMARK  262  A    between atoms: _653  and  _654
REMARK  263  A    between atoms: _657  and  _659
REMARK  264  A    between atoms: _659  and  _660
REMARK  265  A    between atoms: _659  and  _662
REMARK  266  A    between atoms: _662  and  _663
REMARK  267  A    between atoms: _665  and  _667
REMARK  268  A    between atoms: _667  and  _668
REMARK  269  A    between atoms: _667  and  _670
REMARK  270  A    between atoms: _670  and  _671
REMARK  271  A    between atoms: _671  and  _672
REMARK  272  A    between atoms: _677  and  _679
REMARK  273  A    between atoms: _679  and  _680
REMARK  274  A    between atoms: _679  and  _682
REMARK  275  A    between atoms: _682  and  _683
REMARK  276  A    between atoms: _685  and  _687
REMARK  277  A    between atoms: _687  and  _688
REMARK  278  A    between atoms: _687  and  _690
REMARK  279  A    between atoms: _690  and  _691
REMARK  280  A    between atoms: _694  and  _696
REMARK  281  A    between atoms: _696  and  _697
REMARK  282  A    between atoms: _696  and  _699
REMARK  283  A    between atoms: _699  and  _700
REMARK  284  A    between atoms: _703  and  _705
REMARK  285  A    between atoms: _705  and  _706
REMARK  286  A    between atoms: _705  and  _708
REMARK  287  A    between atoms: _711  and  _713
REMARK  288  A    between atoms: _713  and  _714
REMARK  289  A    between atoms: _716  and  _718
REMARK  290  A    between atoms: _718  and  _719
REMARK  291  A    between atoms: _722  and  _724
REMARK  292  A    between atoms: _724  and  _725
REMARK  293  A    between atoms: _724  and  _727
REMARK                            x       y       z     vdW  Elec       q    Type
REMARK                         _______ _______ _______ _____ _____    ______ ____
ROOT
ATOM      1  CG  TRP A   1      14.380  38.327  14.957  0.00  0.00    -0.002 A 
ATOM      2  CD1 TRP A   1      13.371  37.909  15.774  0.00  0.00    +0.068 A 
ATOM      3  NE1 TRP A   1      13.735  36.763  16.425  0.00  0.00    -0.352 N 
ATOM      4  HE1 TRP A   1      13.146  36.246  17.108  0.00  0.00    +0.166 HD
ATOM      5  CE2 TRP A   1      15.000  36.403  16.035  0.00  0.00    +0.056 A 
ATOM      6  CZ2 TRP A   1      15.798  35.302  16.424  0.00  0.00    +0.017 A 
ATOM      7  CH2 TRP A   1      17.049  35.191  15.865  0.00  0.00    +0.001 A 
ATOM      8  CZ3 TRP A   1      17.524  36.141  14.940  0.00  0.00    +0.000 A 
ATOM      9  CE3 TRP A   1      16.728  37.235  14.554  0.00  0.00    +0.001 A 
ATOM     10  CD2 TRP A   1      15.443  37.368  15.108  0.00  0.00    +0.013 A 
ENDROOT
BRANCH   1  11
ATOM     11  CB  TRP A   1      14.404  39.594  14.152  0.00  0.00    +0.053 C 
BRANCH  11  12
ATOM     12  CA  TRP A   1      14.005  39.540  12.663  0.00  0.00    +0.137 C 
BRANCH  12  13
ATOM     13  N   TRP A   1      12.749  38.823  12.395  0.00  0.00    -0.239 NA
ATOM     14  H   TRP A   1      12.603  37.867  12.778  0.00  0.00    +0.142 HD
ENDBRANCH  12  13
BRANCH  12  15
ATOM     15  C   TRP A   1      15.105  38.878  11.845  0.00  0.00    +0.224 C 
ATOM     16  O   TRP A   1      15.037  37.676  11.556  0.00  0.00    -0.287 OA
ENDBRANCH  12  15
ENDBRANCH  11  12
ENDBRANCH   1  11
TORSDOF 4
REMARK  Name = ../refined-set-2016/1m4h/1m4h_pocket.pdb
REMARK  293 active torsions:
REMARK  status: ('A' for Active; 'I' for Inactive)
REMARK    1  A    between atoms: _1  and  _3
REMARK    2  A    between atoms: _3  and  _4
REMARK    3  A    between atoms: _3  and  _6
REMARK    4  A    between atoms: _6  and  _7
REMARK    5  A    between atoms: _7  and  _8
REMARK    6  A    between atoms: _8  and  _9
REMARK    7  A    between atoms: _9  and  _10
REMARK    8  A    between atoms: _14  and  _16
REMARK    9  A    between atoms: _16  and  _17
REMARK   10  A    between atoms: _16  and  _19
REMARK   11  A    between atoms: _19  and  _20
REMARK   12  A    between atoms: _22  and  _24
REMARK   13  A    between atoms: _24  and  _25
REMARK   14  A    between atoms: _27  and  _29
REMARK   15  A    between atoms: _29  and  _30
REMARK   16  A    between atoms: _29  and  _32
REMARK   17  A    between atoms: _32  and  _33
REMARK   18  A    between atoms: _33  and  _34
REMARK   19  A    between atoms: _39  and  _41
REMARK   20  A    between atoms: _41  and  _42
REMARK   21  A    between atoms: _44  and  _46
REMARK   22  A    between atoms: _46  and  _47
REMARK   23  A    between atoms: _46  and  _49
REMARK   24  A    between atoms: _49  and  _50
REMARK   25  A    between atoms: _55  and  _56
REMARK   26  A    between atoms: _58  and  _60
REMARK   27  A    between atoms: _60  and  _61
REMARK   28  A    between atoms: _60  and  _63
REMARK   29  A    between atoms: _63  and  _64
REMARK   30  A    between atoms: _67  and  _69
REMARK   31  A    between atoms: _69  and  _70
REMARK   32  A    between atoms: _69  and  _72
REMARK   33  A    between atoms: _75  and  _77
REMARK   34  A    between atoms: _77  and  _78
REMARK   35  A    between atoms: _77  and  _80
REMARK   36  A    between atoms: _80  and  _81
REMARK   37  A    between atoms: _84  and  _86
REMARK   38  A    between atoms: _86  and  _87
REMARK   39  A    between atoms: _86  and  _89
REMARK   40  A    between atoms: _89  and  _90
REMARK   41  A    between atoms: _93  and  _95
REMARK   42  A    between atoms: _95  and  _96
REMARK   43  A    between atoms: _98  and  _100
REMARK   44  A    between atoms: _100  and  _101
REMARK   45  A    between atoms: _100  and  _103
REMARK   46  A    between atoms: _103  and  _104
REMARK   47  A    between atoms: _106  and  _108
REMARK   48  A    between atoms: _108  and  _109
REMARK   49  A    between atoms: _108  and  _111
REMARK   50  A    between atoms: _111  and  _112
REMARK   51  A    between atoms: _114  and  _116
REMARK   52  A    between atoms: _116  and  _117
REMARK   53  A    between atoms: _116  and  _119
REMARK   54  A    between atoms: _119  and  _120
REMARK   55  A    between atoms: _125  and  _127
REMARK   56  A    between atoms: _127  and  _128
REMARK   57  A    between atoms: _127  and  _130
REMARK   58  A    between atoms: _130  and  _131
REMARK   59  A    between atoms: _136  and  _137
REMARK   60  A    between atoms: _139  and  _141
REMARK   61  A    between atoms: _141  and  _142
REMARK   62  A    between atoms: _141  and  _144
REMARK   63  A    between atoms: _148  and  _149
REMARK   64  A    between atoms: _154  and  _156
REMARK   65  A    between atoms: _156  and  _157
REMARK   66  A    between atoms: _156  and  _159
REMARK   67  A    between atoms: _159  and  _160
REMARK   68  A    between atoms: _165  and  _166
REMARK   69  A    between atoms: _168  and  _170
REMARK   70  A    between atoms: _170  and  _171
REMARK   71  A    between atoms: _170  and  _173
REMARK   72  A    between atoms: _173  and  _174
REMARK   73  A    between atoms: _177  and  _179
REMARK   74  A    between atoms: _179  and  _180
REMARK   75  A    between atoms: _179  and  _182
REMARK   76  A    between atoms: _182  and  _183
REMARK   77  A    between atoms: _183  and  _184
REMARK   78  A    between atoms: _189  and  _191
REMARK   79  A    between atoms: _191  and  _192
REMARK   80  A    between atoms: _194  and  _196
REMARK   81  A    between atoms: _196  and  _197
REMARK   82  A    between atoms: _196  and  _199
REMARK   83  A    between atoms: _199  and  _200
REMARK   84  A    between atoms: _200  and  _201
REMARK   85  A    between atoms: _201  and  _202
REMARK   86  A    between atoms: _202  and  _203
REMARK   87  A    between atoms: _207  and  _209
REMARK   88  A    between atoms: _209  and  _210
REMARK   89  A    between atoms: _209  and  _212
REMARK   90  A    between atoms: _212  and  _213
REMARK   91  A    between atoms: _223  and  _225
REMARK   92  A    between atoms: _225  and  _226
REMARK   93  A    between atoms: _225  and  _228
REMARK   94  A    between atoms: _228  and  _229
REMARK   95  A    between atoms: _232  and  _234
REMARK   96  A    between atoms: _234  and  _235
REMARK   97  A    between atoms: _234  and  _237
REMARK   98  A    between atoms: _237  and  _238
REMARK   99  A    between atoms: _238  and  _239
REMARK  100  A    between atoms: _239  and  _240
REMARK  101  A    between atoms: _240  and  _241
REMARK  102  A    between atoms: _245  and  _247
REMARK  103  A    between atoms: _247  and  _248
REMARK  104  A    between atoms: _247  and  _250
REMARK  105  A    between atoms: _250  and  _251
REMARK  106  A    between atoms: _257  and  _259
REMARK  107  A    between atoms: _259  and  _260
REMARK  108  A    between atoms: _259  and  _262
REMARK  109  A    between atoms: _262  and  _263
REMARK  110  A    between atoms: _269  and  _271
REMARK  111  A    between atoms: _271  and  _272
REMARK  112  A    between atoms: _271  and  _274
REMARK  113  A    between atoms: _274  and  _275
REMARK  114  A    between atoms: _278  and  _280
REMARK  115  A    between atoms: _280  and  _281
REMARK  116  A    between atoms: _280  and  _283
REMARK  117  A    between atoms: _283  and  _284
REMARK  118  A    between atoms: _286  and  _288
REMARK  119  A    between atoms: _288  and  _289
REMARK  120  A    between atoms: _288  and  _291
REMARK  121  A    between atoms: _291  and  _292
REMARK  122  A    between atoms: _302  and  _304
REMARK  123  A    between atoms: _304  and  _305
REMARK  124  A    between atoms: _307  and  _309
REMARK  125  A    between atoms: _309  and  _310
REMARK  126  A    between atoms: _309  and  _312
REMARK  127  A    between atoms: _312  and  _313
REMARK  128  A    between atoms: _316  and  _318
REMARK  129  A    between atoms: _318  and  _319
REMARK  130  A    between atoms: _318  and  _321
REMARK  131  A    between atoms: _321  and  _322
REMARK  132  A    between atoms: _325  and  _327
REMARK  133  A    between atoms: _327  and  _328
REMARK  134  A    between atoms: _327  and  _330
REMARK  135  A    between atoms: _330  and  _331
REMARK  136  A    between atoms: _334  and  _336
REMARK  137  A    between atoms: _336  and  _337
REMARK  138  A    between atoms: _340  and  _342
REMARK  139  A    between atoms: _342  and  _343
REMARK  140  A    between atoms: _342  and  _345
REMARK  141  A    between atoms: _345  and  _346
REMARK  142  A    between atoms: _351  and  _352
REMARK  143  A    between atoms: _354  and  _356
REMARK  144  A    between atoms: _356  and  _357
REMARK  145  A    between atoms: _360  and  _362
REMARK  146  A    between atoms: _362  and  _363
REMARK  147  A    between atoms: _362  and  _365
REMARK  148  A    between atoms: _365  and  _366
REMARK  149  A    between atoms: _366  and  _367
REMARK  150  A    between atoms: _370  and  _372
REMARK  151  A    between atoms: _372  and  _373
REMARK  152  A    between atoms: _372  and  _375
REMARK  153  A    between atoms: _375  and  _376
REMARK  154  A    between atoms: _379  and  _381
REMARK  155  A    between atoms: _381  and  _382
REMARK  156  A    between atoms: _385  and  _387
REMARK  157  A    between atoms: _387  and  _388
REMARK  158  A    between atoms: _387  and  _390
REMARK  159  A    between atoms: _390  and  _391
REMARK  160  A    between atoms: _391  and  _392
REMARK  161  A    between atoms: _392  and  _393
REMARK  162  A    between atoms: _403  and  _404
REMARK  163  A    between atoms: _409  and  _411
REMARK  164  A    between atoms: _411  and  _412
REMARK  165  A    between atoms: _411  and  _414
REMARK  166  A    between atoms: _414  and  _415
REMARK  167  A    between atoms: _418  and  _420
REMARK  168  A    between atoms: _420  and  _421
REMARK  169  A    between atoms: _420  and  _423
REMARK  170  A    between atoms: _423  and  _424
REMARK  171  A    between atoms: _427  and  _429
REMARK  172  A    between atoms: _429  and  _430
REMARK  173  A    between atoms: _429  and  _432
REMARK  174  A    between atoms: _432  and  _433
REMARK  175  A    between atoms: _433  and  _434
REMARK  176  A    between atoms: _434  and  _435
REMARK  177  A    between atoms: _444  and  _446
REMARK  178  A    between atoms: _446  and  _447
REMARK  179  A    between atoms: _446  and  _449
REMARK  180  A    between atoms: _449  and  _450
REMARK  181  A    between atoms: _460  and  _462
REMARK  182  A    between atoms: _462  and  _463
REMARK  183  A    between atoms: _462  and  _465
REMARK  184  A    between atoms: _465  and  _466
REMARK  185  A    between atoms: _471  and  _472
REMARK  186  A    between atoms: _474  and  _476
REMARK  187  A    between atoms: _476  and  _477
REMARK  188  A    between atoms: _476  and  _479
REMARK  189  A    between atoms: _479  and  _480
REMARK  190  A    between atoms: _480  and  _481
REMARK  191  A    between atoms: _481  and  _482
REMARK  192  A    between atoms: _482  and  _483
REMARK  193  A    between atoms: _487  and  _489
REMARK  194  A    between atoms: _489  and  _490
REMARK  195  A    between atoms: _489  and  _492
REMARK  196  A    between atoms: _492  and  _493
REMARK  197  A    between atoms: _496  and  _498
REMARK  198  A    between atoms: _498  and  _499
REMARK  199  A    between atoms: _498  and  _501
REMARK  200  A    between atoms: _504  and  _506
REMARK  201  A    between atoms: _506  and  _507
REMARK  202  A    between atoms: _506  and  _509
REMARK  203  A    between atoms: _509  and  _510
REMARK  204  A    between atoms: _513  and  _515
REMARK  205  A    between atoms: _515  and  _516
REMARK  206  A    between atoms: _515  and  _518
REMARK  207  A    between atoms: _518  and  _519
REMARK  208  A    between atoms: _521  and  _523
REMARK  209  A    between atoms: _523  and  _524
REMARK  210  A    between atoms: _526  and  _528
REMARK  211  A    between atoms: _528  and  _529
REMARK  212  A    between atoms: _528  and  _531
REMARK  213  A    between atoms: _531  and  _532
REMARK  214  A    between atoms: _535  and  _537
REMARK  215  A    between atoms: _537  and  _538
REMARK  216  A    between atoms: _537  and  _540
REMARK  217  A    between atoms: _540  and  _541
REMARK  218  A    between atoms: _544  and  _546
REMARK  219  A    between atoms: _546  and  _547
REMARK  220  A    between atoms: _546  and  _549
REMARK  221  A    between atoms: _549  and  _550
REMARK  222  A    between atoms: _555  and  _557
REMARK  223  A    between atoms: _557  and  _558
REMARK  224  A    between atoms: _557  and  _560
REMARK  225  A    between atoms: _560  and  _561
REMARK  226  A    between atoms: _564  and  _566
REMARK  227  A    between atoms: _566  and  _567
REMARK  228  A    between atoms: _566  and  _569
REMARK  229  A    between atoms: _569  and  _570
REMARK  230  A    between atoms: _570  and  _571
REMARK  231  A    between atoms: _571  and  _572
REMARK  232  A    between atoms: _581  and  _583
REMARK  233  A    between atoms: _583  and  _584
REMARK  234  A    between atoms: _586  and  _588
REMARK  235  A    between atoms: _588  and  _589
REMARK  236  A    between atoms: _588  and  _591
REMARK  237  A    between atoms: _591  and  _592
REMARK  238  A    between atoms: _592  and  _593
REMARK  239  A    between atoms: _596  and  _598
REMARK  240  A    between atoms: _598  and  _599
REMARK  241  A    between atoms: _598  and  _601
REMARK  242  A    between atoms: _601  and  _602
REMARK  243  A    between atoms: _602  and  _603
REMARK  244  A    between atoms: _603  and  _604
REMARK  245  A    between atoms: _614  and  _615
REMARK  246  A    between atoms: _620  and  _622
REMARK  247  A    between atoms: _622  and  _623
REMARK  248  A    between atoms: _622  and  _625
REMARK  249  A    between atoms: _628  and  _630
REMARK  250  A    between atoms: _630  and  _631
REMARK  251  A    between atoms: _630  and  _633
REMARK  252  A    between atoms: _633  and  _634
REMARK  253  A    between atoms: _634  and  _635
REMARK  254  A    between atoms: _638  and  _640
REMARK  255  A    between atoms: _640  and  _641
REMARK  256  A    between atoms: _640  and  _643
REMARK  257  A    between atoms: _643  and  _644
REMARK  258  A    between atoms: _644  and  _645
REMARK  259  A    between atoms: _645  and  _646
REMARK  260  A    between atoms: _646  and  _647
REMARK  261  A    between atoms: _651  and  _653
REMARK  262  A    between atoms: _653  and  _654
REMARK  263  A    between atoms: _657  and  _659
REMARK  264  A    between atoms: _659  and  _660
REMARK  265  A    between atoms: _659  and  _662
REMARK  266  A    between atoms: _662  and  _663
REMARK  267  A    between atoms: _665  and  _667
REMARK  268  A    between atoms: _667  and  _668
REMARK  269  A    between atoms: _667  and  _670
REMARK  270  A    between atoms: _670  and  _671
REMARK  271  A    between atoms: _671  and  _672
REMARK  272  A    between atoms: _677  and  _679
REMARK  273  A    between atoms: _679  and  _680
REMARK  274  A    between atoms: _679  and  _682
REMARK  275  A    between atoms: _682  and  _683
REMARK  276  A    between atoms: _685  and  _687
REMARK  277  A    between atoms: _687  and  _688
REMARK  278  A    between atoms: _687  and  _690
REMARK  279  A    between atoms: _690  and  _691
REMARK  280  A    between atoms: _694  and  _696
REMARK  281  A    between atoms: _696  and  _697
REMARK  282  A    between atoms: _696  and  _699
REMARK  283  A    between atoms: _699  and  _700
REMARK  284  A    between atoms: _703  and  _705
REMARK  285  A    between atoms: _705  and  _706
REMARK  286  A    between atoms: _705  and  _708
REMARK  287  A    between atoms: _711  and  _713
REMARK  288  A    between atoms: _713  and  _714
REMARK  289  A    between atoms: _716  and  _718
REMARK  290  A    between atoms: _718  and  _719
REMARK  291  A    between atoms: _722  and  _724
REMARK  292  A    between atoms: _724  and  _725
REMARK  293  A    between atoms: _724  and  _727
REMARK                            x       y       z     vdW  Elec       q    Type
REMARK                         _______ _______ _______ _____ _____    ______ ____
ROOT
ATOM      1  CA  ILE A   2      20.750  40.425  16.675  0.00  0.00    +0.148 C 
ENDROOT
BRANCH   1   3
ATOM      2  C   GLY A   1      19.730  40.182  14.500  0.00  0.00    +0.240 C 
ATOM      3  N   ILE A   2      20.811  40.408  15.228  0.00  0.00    -0.297 N 
ATOM      4  H   ILE A   2      21.721  40.576  14.753  0.00  0.00    +0.150 HD
ATOM      5  O   GLY A   1      18.608  40.025  14.998  0.00  0.00    -0.274 OA
BRANCH   2   6
ATOM      6  CA  GLY A   1      19.935  40.144  13.002  0.00  0.00    +0.169 C 
BRANCH   6   7
ATOM      7  N   GLY A   1      18.653  39.873  12.386  0.00  0.00    -0.236 NA
ATOM      8  H   GLY A   1      17.777  40.061  12.913  0.00  0.00    +0.142 HD
ENDBRANCH   6   7
ENDBRANCH   2   6
ENDBRANCH   1   3
BRANCH   1   9
ATOM      9  C   ILE A   2      21.572  41.585  17.213  0.00  0.00    +0.241 C 
ATOM     10  N   LEU A   3      21.043  42.242  18.233  0.00  0.00    -0.298 N 
ATOM     11  H   LEU A   3      20.109  41.956  18.591  0.00  0.00    +0.150 HD
ATOM     12  O   ILE A   2      22.651  41.886  16.699  0.00  0.00    -0.273 OA
BRANCH  10  13
ATOM     13  CA  LEU A   3      21.732  43.348  18.863  0.00  0.00    +0.137 C 
BRANCH  13  14
ATOM     14  C   LEU A   3      22.188  42.910  20.252  0.00  0.00    +0.227 C 
ATOM     15  O   LEU A   3      21.402  42.918  21.211  0.00  0.00    -0.286 OA
ENDBRANCH  13  14
BRANCH  13  16
ATOM     16  CB  LEU A   3      20.808  44.568  18.987  0.00  0.00    +0.028 C 
BRANCH  16  17
ATOM     17  CG  LEU A   3      21.482  45.795  19.618  0.00  0.00    +0.002 C 
ATOM     18  CD2 LEU A   3      20.441  46.854  19.929  0.00  0.00    +0.000 C 
ATOM     19  CD1 LEU A   3      22.540  46.358  18.656  0.00  0.00    +0.000 C 
ENDBRANCH  16  17
ENDBRANCH  13  16
ENDBRANCH  10  13
ENDBRANCH   1   9
BRANCH   1  20
ATOM     20  CB  ILE A   2      21.297  39.090  17.227  0.00  0.00    +0.027 C 
ATOM     21  CG2 ILE A   2      22.715  38.855  16.682  0.00  0.00    +0.002 C 
BRANCH  20  22
ATOM     22  CG1 ILE A   2      21.289  39.099  18.753  0.00  0.00    +0.002 C 
ATOM     23  CD1 ILE A   2      21.399  37.720  19.359  0.00  0.00    +0.000 C 
ENDBRANCH  20  22
ENDBRANCH   1  20
TORSDOF 10
REMARK  Name = ../refined-set-2016/1m4h/1m4h_pocket.pdb
REMARK  293 active torsions:
REMARK  status: ('A' for Active; 'I' for Inactive)
REMARK    1  A    between atoms: _1  and  _3
REMARK    2  A    between atoms: _3  and  _4
REMARK    3  A    between atoms: _3  and  _6
REMARK    4  A    between atoms: _6  and  _7
REMARK    5  A    between atoms: _7  and  _8
REMARK    6  A    between atoms: _8  and  _9
REMARK    7  A    between atoms: _9  and  _10
REMARK    8  A    between atoms: _14  and  _16
REMARK    9  A    between atoms: _16  and  _17
REMARK   10  A    between atoms: _16  and  _19
REMARK   11  A    between atoms: _19  and  _20
REMARK   12  A    between atoms: _22  and  _24
REMARK   13  A    between atoms: _24  and  _25
REMARK   14  A    between atoms: _27  and  _29
REMARK   15  A    between atoms: _29  and  _30
REMARK   16  A    between atoms: _29  and  _32
REMARK   17  A    between atoms: _32  and  _33
REMARK   18  A    between atoms: _33  and  _34
REMARK   19  A    between atoms: _39  and  _41
REMARK   20  A    between atoms: _41  and  _42
REMARK   21  A    between atoms: _44  and  _46
REMARK   22  A    between atoms: _46  and  _47
REMARK   23  A    between atoms: _46  and  _49
REMARK   24  A    between atoms: _49  and  _50
REMARK   25  A    between atoms: _55  and  _56
REMARK   26  A    between atoms: _58  and  _60
REMARK   27  A    between atoms: _60  and  _61
REMARK   28  A    between atoms: _60  and  _63
REMARK   29  A    between atoms: _63  and  _64
REMARK   30  A    between atoms: _67  and  _69
REMARK   31  A    between atoms: _69  and  _70
REMARK   32  A    between atoms: _69  and  _72
REMARK   33  A    between atoms: _75  and  _77
REMARK   34  A    between atoms: _77  and  _78
REMARK   35  A    between atoms: _77  and  _80
REMARK   36  A    between atoms: _80  and  _81
REMARK   37  A    between atoms: _84  and  _86
REMARK   38  A    between atoms: _86  and  _87
REMARK   39  A    between atoms: _86  and  _89
REMARK   40  A    between atoms: _89  and  _90
REMARK   41  A    between atoms: _93  and  _95
REMARK   42  A    between atoms: _95  and  _96
REMARK   43  A    between atoms: _98  and  _100
REMARK   44  A    between atoms: _100  and  _101
REMARK   45  A    between atoms: _100  and  _103
REMARK   46  A    between atoms: _103  and  _104
REMARK   47  A    between atoms: _106  and  _108
REMARK   48  A    between atoms: _108  and  _109
REMARK   49  A    between atoms: _108  and  _111
REMARK   50  A    between atoms: _111  and  _112
REMARK   51  A    between atoms: _114  and  _116
REMARK   52  A    between atoms: _116  and  _117
REMARK   53  A    between atoms: _116  and  _119
REMARK   54  A    between atoms: _119  and  _120
REMARK   55  A    between atoms: _125  and  _127
REMARK   56  A    between atoms: _127  and  _128
REMARK   57  A    between atoms: _127  and  _130
REMARK   58  A    between atoms: _130  and  _131
REMARK   59  A    between atoms: _136  and  _137
REMARK   60  A    between atoms: _139  and  _141
REMARK   61  A    between atoms: _141  and  _142
REMARK   62  A    between atoms: _141  and  _144
REMARK   63  A    between atoms: _148  and  _149
REMARK   64  A    between atoms: _154  and  _156
REMARK   65  A    between atoms: _156  and  _157
REMARK   66  A    between atoms: _156  and  _159
REMARK   67  A    between atoms: _159  and  _160
REMARK   68  A    between atoms: _165  and  _166
REMARK   69  A    between atoms: _168  and  _170
REMARK   70  A    between atoms: _170  and  _171
REMARK   71  A    between atoms: _170  and  _173
REMARK   72  A    between atoms: _173  and  _174
REMARK   73  A    between atoms: _177  and  _179
REMARK   74  A    between atoms: _179  and  _180
REMARK   75  A    between atoms: _179  and  _182
REMARK   76  A    between atoms: _182  and  _183
REMARK   77  A    between atoms: _183  and  _184
REMARK   78  A    between atoms: _189  and  _191
REMARK   79  A    between atoms: _191  and  _192
REMARK   80  A    between atoms: _194  and  _196
REMARK   81  A    between atoms: _196  and  _197
REMARK   82  A    between atoms: _196  and  _199
REMARK   83  A    between atoms: _199  and  _200
REMARK   84  A    between atoms: _200  and  _201
REMARK   85  A    between atoms: _201  and  _202
REMARK   86  A    between atoms: _202  and  _203
REMARK   87  A    between atoms: _207  and  _209
REMARK   88  A    between atoms: _209  and  _210
REMARK   89  A    between atoms: _209  and  _212
REMARK   90  A    between atoms: _212  and  _213
REMARK   91  A    between atoms: _223  and  _225
REMARK   92  A    between atoms: _225  and  _226
REMARK   93  A    between atoms: _225  and  _228
REMARK   94  A    between atoms: _228  and  _229
REMARK   95  A    between atoms: _232  and  _234
REMARK   96  A    between atoms: _234  and  _235
REMARK   97  A    between atoms: _234  and  _237
REMARK   98  A    between atoms: _237  and  _238
REMARK   99  A    between atoms: _238  and  _239
REMARK  100  A    between atoms: _239  and  _240
REMARK  101  A    between atoms: _240  and  _241
REMARK  102  A    between atoms: _245  and  _247
REMARK  103  A    between atoms: _247  and  _248
REMARK  104  A    between atoms: _247  and  _250
REMARK  105  A    between atoms: _250  and  _251
REMARK  106  A    between atoms: _257  and  _259
REMARK  107  A    between atoms: _259  and  _260
REMARK  108  A    between atoms: _259  and  _262
REMARK  109  A    between atoms: _262  and  _263
REMARK  110  A    between atoms: _269  and  _271
REMARK  111  A    between atoms: _271  and  _272
REMARK  112  A    between atoms: _271  and  _274
REMARK  113  A    between atoms: _274  and  _275
REMARK  114  A    between atoms: _278  and  _280
REMARK  115  A    between atoms: _280  and  _281
REMARK  116  A    between atoms: _280  and  _283
REMARK  117  A    between atoms: _283  and  _284
REMARK  118  A    between atoms: _286  and  _288
REMARK  119  A    between atoms: _288  and  _289
REMARK  120  A    between atoms: _288  and  _291
REMARK  121  A    between atoms: _291  and  _292
REMARK  122  A    between atoms: _302  and  _304
REMARK  123  A    between atoms: _304  and  _305
REMARK  124  A    between atoms: _307  and  _309
REMARK  125  A    between atoms: _309  and  _310
REMARK  126  A    between atoms: _309  and  _312
REMARK  127  A    between atoms: _312  and  _313
REMARK  128  A    between atoms: _316  and  _318
REMARK  129  A    between atoms: _318  and  _319
REMARK  130  A    between atoms: _318  and  _321
REMARK  131  A    between atoms: _321  and  _322
REMARK  132  A    between atoms: _325  and  _327
REMARK  133  A    between atoms: _327  and  _328
REMARK  134  A    between atoms: _327  and  _330
REMARK  135  A    between atoms: _330  and  _331
REMARK  136  A    between atoms: _334  and  _336
REMARK  137  A    between atoms: _336  and  _337
REMARK  138  A    between atoms: _340  and  _342
REMARK  139  A    between atoms: _342  and  _343
REMARK  140  A    between atoms: _342  and  _345
REMARK  141  A    between atoms: _345  and  _346
REMARK  142  A    between atoms: _351  and  _352
REMARK  143  A    between atoms: _354  and  _356
REMARK  144  A    between atoms: _356  and  _357
REMARK  145  A    between atoms: _360  and  _362
REMARK  146  A    between atoms: _362  and  _363
REMARK  147  A    between atoms: _362  and  _365
REMARK  148  A    between atoms: _365  and  _366
REMARK  149  A    between atoms: _366  and  _367
REMARK  150  A    between atoms: _370  and  _372
REMARK  151  A    between atoms: _372  and  _373
REMARK  152  A    between atoms: _372  and  _375
REMARK  153  A    between atoms: _375  and  _376
REMARK  154  A    between atoms: _379  and  _381
REMARK  155  A    between atoms: _381  and  _382
REMARK  156  A    between atoms: _385  and  _387
REMARK  157  A    between atoms: _387  and  _388
REMARK  158  A    between atoms: _387  and  _390
REMARK  159  A    between atoms: _390  and  _391
REMARK  160  A    between atoms: _391  and  _392
REMARK  161  A    between atoms: _392  and  _393
REMARK  162  A    between atoms: _403  and  _404
REMARK  163  A    between atoms: _409  and  _411
REMARK  164  A    between atoms: _411  and  _412
REMARK  165  A    between atoms: _411  and  _414
REMARK  166  A    between atoms: _414  and  _415
REMARK  167  A    between atoms: _418  and  _420
REMARK  168  A    between atoms: _420  and  _421
REMARK  169  A    between atoms: _420  and  _423
REMARK  170  A    between atoms: _423  and  _424
REMARK  171  A    between atoms: _427  and  _429
REMARK  172  A    between atoms: _429  and  _430
REMARK  173  A    between atoms: _429  and  _432
REMARK  174  A    between atoms: _432  and  _433
REMARK  175  A    between atoms: _433  and  _434
REMARK  176  A    between atoms: _434  and  _435
REMARK  177  A    between atoms: _444  and  _446
REMARK  178  A    between atoms: _446  and  _447
REMARK  179  A    between atoms: _446  and  _449
REMARK  180  A    between atoms: _449  and  _450
REMARK  181  A    between atoms: _460  and  _462
REMARK  182  A    between atoms: _462  and  _463
REMARK  183  A    between atoms: _462  and  _465
REMARK  184  A    between atoms: _465  and  _466
REMARK  185  A    between atoms: _471  and  _472
REMARK  186  A    between atoms: _474  and  _476
REMARK  187  A    between atoms: _476  and  _477
REMARK  188  A    between atoms: _476  and  _479
REMARK  189  A    between atoms: _479  and  _480
REMARK  190  A    between atoms: _480  and  _481
REMARK  191  A    between atoms: _481  and  _482
REMARK  192  A    between atoms: _482  and  _483
REMARK  193  A    between atoms: _487  and  _489
REMARK  194  A    between atoms: _489  and  _490
REMARK  195  A    between atoms: _489  and  _492
REMARK  196  A    between atoms: _492  and  _493
REMARK  197  A    between atoms: _496  and  _498
REMARK  198  A    between atoms: _498  and  _499
REMARK  199  A    between atoms: _498  and  _501
REMARK  200  A    between atoms: _504  and  _506
REMARK  201  A    between atoms: _506  and  _507
REMARK  202  A    between atoms: _506  and  _509
REMARK  203  A    between atoms: _509  and  _510
REMARK  204  A    between atoms: _513  and  _515
REMARK  205  A    between atoms: _515  and  _516
REMARK  206  A    between atoms: _515  and  _518
REMARK  207  A    between atoms: _518  and  _519
REMARK  208  A    between atoms: _521  and  _523
REMARK  209  A    between atoms: _523  and  _524
REMARK  210  A    between atoms: _526  and  _528
REMARK  211  A    between atoms: _528  and  _529
REMARK  212  A    between atoms: _528  and  _531
REMARK  213  A    between atoms: _531  and  _532
REMARK  214  A    between atoms: _535  and  _537
REMARK  215  A    between atoms: _537  and  _538
REMARK  216  A    between atoms: _537  and  _540
REMARK  217  A    between atoms: _540  and  _541
REMARK  218  A    between atoms: _544  and  _546
REMARK  219  A    between atoms: _546  and  _547
REMARK  220  A    between atoms: _546  and  _549
REMARK  221  A    between atoms: _549  and  _550
REMARK  222  A    between atoms: _555  and  _557
REMARK  223  A    between atoms: _557  and  _558
REMARK  224  A    between atoms: _557  and  _560
REMARK  225  A    between atoms: _560  and  _561
REMARK  226  A    between atoms: _564  and  _566
REMARK  227  A    between atoms: _566  and  _567
REMARK  228  A    between atoms: _566  and  _569
REMARK  229  A    between atoms: _569  and  _570
REMARK  230  A    between atoms: _570  and  _571
REMARK  231  A    between atoms: _571  and  _572
REMARK  232  A    between atoms: _581  and  _583
REMARK  233  A    between atoms: _583  and  _584
REMARK  234  A    between atoms: _586  and  _588
REMARK  235  A    between atoms: _588  and  _589
REMARK  236  A    between atoms: _588  and  _591
REMARK  237  A    between atoms: _591  and  _592
REMARK  238  A    between atoms: _592  and  _593
REMARK  239  A    between atoms: _596  and  _598
REMARK  240  A    between atoms: _598  and  _599
REMARK  241  A    between atoms: _598  and  _601
REMARK  242  A    between atoms: _601  and  _602
REMARK  243  A    between atoms: _602  and  _603
REMARK  244  A    between atoms: _603  and  _604
REMARK  245  A    between atoms: _614  and  _615
REMARK  246  A    between atoms: _620  and  _622
REMARK  247  A    between atoms: _622  and  _623
REMARK  248  A    between atoms: _622  and  _625
REMARK  249  A    between atoms: _628  and  _630
REMARK  250  A    between atoms: _630  and  _631
REMARK  251  A    between atoms: _630  and  _633
REMARK  252  A    between atoms: _633  and  _634
REMARK  253  A    between atoms: _634  and  _635
REMARK  254  A    between atoms: _638  and  _640
REMARK  255  A    between atoms: _640  and  _641
REMARK  256  A    between atoms: _640  and  _643
REMARK  257  A    between atoms: _643  and  _644
REMARK  258  A    between atoms: _644  and  _645
REMARK  259  A    between atoms: _645  and  _646
REMARK  260  A    between atoms: _646  and  _647
REMARK  261  A    between atoms: _651  and  _653
REMARK  262  A    between atoms: _653  and  _654
REMARK  263  A    between atoms: _657  and  _659
REMARK  264  A    between atoms: _659  and  _660
REMARK  265  A    between atoms: _659  and  _662
REMARK  266  A    between atoms: _662  and  _663
REMARK  267  A    between atoms: _665  and  _667
REMARK  268  A    between atoms: _667  and  _668
REMARK  269  A    between atoms: _667  and  _670
REMARK  270  A    between atoms: _670  and  _671
REMARK  271  A    between atoms: _671  and  _672
REMARK  272  A    between atoms: _677  and  _679
REMARK  273  A    between atoms: _679  and  _680
REMARK  274  A    between atoms: _679  and  _682
REMARK  275  A    between atoms: _682  and  _683
REMARK  276  A    between atoms: _685  and  _687
REMARK  277  A    between atoms: _687  and  _688
REMARK  278  A    between atoms: _687  and  _690
REMARK  279  A    between atoms: _690  and  _691
REMARK  280  A    between atoms: _694  and  _696
REMARK  281  A    between atoms: _696  and  _697
REMARK  282  A    between atoms: _696  and  _699
REMARK  283  A    between atoms: _699  and  _700
REMARK  284  A    between atoms: _703  and  _705
REMARK  285  A    between atoms: _705  and  _706
REMARK  286  A    between atoms: _705  and  _708
REMARK  287  A    between atoms: _711  and  _713
REMARK  288  A    between atoms: _713  and  _714
REMARK  289  A    between atoms: _716  and  _718
REMARK  290  A    between atoms: _718  and  _719
REMARK  291  A    between atoms: _722  and  _724
REMARK  292  A    between atoms: _724  and  _725
REMARK  293  A    between atoms: _724  and  _727
REMARK                            x       y       z     vdW  Elec       q    Type
REMARK                         _______ _______ _______ _____ _____    ______ ____
ROOT
ATOM      1  CA  ILE A   6      31.787  38.313  26.371  0.00  0.00    +0.149 C 
ENDROOT
BRANCH   1   2
ATOM      2  C   ILE A   6      31.678  38.379  24.827  0.00  0.00    +0.241 C 
ATOM      3  N   ALA A   7      32.142  39.475  24.234  0.00  0.00    -0.297 N 
ATOM      4  H   ALA A   7      32.540  40.245  24.809  0.00  0.00    +0.150 HD
ATOM      5  O   ILE A   6      31.178  37.450  24.182  0.00  0.00    -0.273 OA
BRANCH   3   6
ATOM      6  CA  ALA A   7      32.096  39.603  22.777  0.00  0.00    +0.149 C 
ATOM      7  CB  ALA A   7      32.449  41.018  22.377  0.00  0.00    +0.031 C 
BRANCH   6   8
ATOM      8  C   ALA A   7      33.057  38.619  22.101  0.00  0.00    +0.241 C 
ATOM      9  O   ALA A   7      34.074  38.253  22.678  0.00  0.00    -0.273 OA
ATOM     10  N   ARG A   8      32.708  38.172  20.893  0.00  0.00    -0.297 N 
ATOM     11  H   ARG A   8      31.797  38.476  20.493  0.00  0.00    +0.150 HD
BRANCH  10  12
ATOM     12  CA  ARG A   8      33.557  37.269  20.106  0.00  0.00    +0.149 C 
BRANCH  12  13
ATOM     13  C   ARG A   8      34.085  38.145  18.974  0.00  0.00    +0.244 C 
ATOM     14  N   PRO A   9      35.341  37.940  18.542  0.00  0.00    -0.272 N 
ATOM     15  CA  PRO A   9      36.353  36.964  18.984  0.00  0.00    +0.152 C 
ATOM     16  CB  PRO A   9      37.479  37.119  17.951  0.00  0.00    +0.031 C 
ATOM     17  CG  PRO A   9      36.823  37.843  16.775  0.00  0.00    +0.024 C 
ATOM     18  CD  PRO A   9      35.867  38.784  17.454  0.00  0.00    +0.094 C 
ATOM     19  O   ARG A   8      33.355  38.986  18.457  0.00  0.00    -0.273 OA
BRANCH  15  20
ATOM     20  C   PRO A   9      36.875  37.220  20.386  0.00  0.00    +0.241 C 
ATOM     21  O   PRO A   9      37.288  36.304  21.080  0.00  0.00    -0.273 OA
ATOM     22  N   ASP A  10      36.882  38.483  20.784  0.00  0.00    -0.297 N 
ATOM     23  H   ASP A  10      36.533  39.220  20.139  0.00  0.00    +0.150 HD
BRANCH  22  24
ATOM     24  CA  ASP A  10      37.363  38.862  22.094  0.00  0.00    +0.160 C 
BRANCH  24  25
ATOM     25  C   ASP A  10      36.853  40.250  22.426  0.00  0.00    +0.241 C 
ATOM     26  N   ASP A  11      37.151  40.688  23.644  0.00  0.00    -0.298 N 
ATOM     27  H   ASP A  11      37.709  40.074  24.272  0.00  0.00    +0.150 HD
ATOM     28  O   ASP A  10      36.227  40.910  21.586  0.00  0.00    -0.273 OA
BRANCH  26  29
ATOM     29  CA  ASP A  11      36.730  41.991  24.137  0.00  0.00    +0.148 C 
BRANCH  29  30
ATOM     30  C   ASP A  11      37.259  43.190  23.387  0.00  0.00    +0.227 C 
ATOM     31  O   ASP A  11      36.975  44.319  23.768  0.00  0.00    -0.286 OA
ENDBRANCH  29  30
BRANCH  29  32
ATOM     32  CB  ASP A  11      37.080  42.154  25.620  0.00  0.00    +0.142 C 
BRANCH  32  33
ATOM     33  CG  ASP A  11      38.559  42.016  25.893  0.00  0.00    +0.367 C 
ATOM     34  OD2 ASP A  11      38.899  41.643  27.032  0.00  0.00    -0.246 OA
ATOM     35  OD1 ASP A  11      39.384  42.287  24.993  0.00  0.00    -0.246 OA
ENDBRANCH  32  33
ENDBRANCH  29  32
ENDBRANCH  26  29
ENDBRANCH  24  25
BRANCH  24  36
ATOM     36  CB  ASP A  10      38.890  38.872  22.112  0.00  0.00    +0.143 C 
BRANCH  36  37
ATOM     37  CG  ASP A  10      39.469  39.616  20.937  0.00  0.00    +0.367 C 
ATOM     38  OD2 ASP A  10      39.409  40.862  20.928  0.00  0.00    -0.246 OA
ATOM     39  OD1 ASP A  10      39.965  38.950  20.007  0.00  0.00    -0.246 OA
ENDBRANCH  36  37
ENDBRANCH  24  36
ENDBRANCH  22  24
ENDBRANCH  15  20
ENDBRANCH  12  13
BRANCH  12  40
ATOM     40  CB  ARG A   8      32.760  36.096  19.495  0.00  0.00    +0.033 C 
BRANCH  40  41
ATOM     41  CG  ARG A   8      32.135  35.106  20.495  0.00  0.00    +0.045 C 
BRANCH  41  42
ATOM     42  CD  ARG A   8      33.176  34.522  21.439  0.00  0.00    +0.174 C 
BRANCH  42  43
ATOM     43  NE  ARG A   8      32.591  33.597  22.416  0.00  0.00    -0.265 N 
ATOM     44  HE  ARG A   8      32.125  34.009  23.250  0.00  0.00    +0.259 HD
ATOM     45  CZ  ARG A   8      32.612  32.265  22.314  0.00  0.00    +0.342 C 
ATOM     46  NH2 ARG A   8      32.066  31.518  23.261  0.00  0.00    -0.292 N 
ATOM     47 HH21 ARG A   8      31.620  31.968  24.086  0.00  0.00    +0.255 HD
ATOM     48 HH22 ARG A   8      32.083  30.481  23.180  0.00  0.00    +0.255 HD
ATOM     49  NH1 ARG A   8      33.187  31.675  21.279  0.00  0.00    -0.292 N 
ATOM     50 HH11 ARG A   8      33.197  30.637  21.211  0.00  0.00    +0.255 HD
ATOM     51 HH12 ARG A   8      33.629  32.249  20.533  0.00  0.00    +0.255 HD
ENDBRANCH  42  43
ENDBRANCH  41  42
ENDBRANCH  40  41
ENDBRANCH  12  40
ENDBRANCH  10  12
ENDBRANCH   6   8
ENDBRANCH   3   6
ENDBRANCH   1   2
BRANCH   1  54
ATOM     52  C   GLU A   5      33.578  39.621  27.366  0.00  0.00    +0.241 C 
ATOM     53  O   GLU A   5      34.375  38.701  27.192  0.00  0.00    -0.273 OA
ATOM     54  N   ILE A   6      32.298  39.532  27.000  0.00  0.00    -0.297 N 
ATOM     55  H   ILE A   6      31.658  40.335  27.163  0.00  0.00    +0.150 HD
BRANCH  52  56
ATOM     56  CA  GLU A   5      34.046  40.928  28.022  0.00  0.00    +0.149 C 
BRANCH  56  58
ATOM     57  C   ALA A   4      33.387  42.306  26.140  0.00  0.00    +0.241 C 
ATOM     58  N   GLU A   5      33.444  42.136  27.457  0.00  0.00    -0.297 N 
ATOM     59  H   GLU A   5      33.058  42.866  28.090  0.00  0.00    +0.150 HD
ATOM     60  O   ALA A   4      33.808  41.469  25.339  0.00  0.00    -0.273 OA
BRANCH  57  61
ATOM     61  CA  ALA A   4      32.766  43.595  25.638  0.00  0.00    +0.149 C 
ATOM     62  CB  ALA A   4      33.851  44.680  25.532  0.00  0.00    +0.031 C 
BRANCH  61  65
ATOM     63  C   TYR A   3      30.637  43.299  26.838  0.00  0.00    +0.241 C 
ATOM     64  O   TYR A   3      30.574  42.101  26.569  0.00  0.00    -0.273 OA
ATOM     65  N   ALA A   4      31.647  44.075  26.454  0.00  0.00    -0.297 N 
ATOM     66  H   ALA A   4      31.642  45.073  26.748  0.00  0.00    +0.150 HD
BRANCH  63  67
ATOM     67  CA  TYR A   3      29.557  44.009  27.662  0.00  0.00    +0.153 C 
BRANCH  67  69
ATOM     68  C   ALA A   2      27.313  43.763  26.747  0.00  0.00    +0.241 C 
ATOM     69  N   TYR A   3      28.188  43.498  27.714  0.00  0.00    -0.297 N 
ATOM     70  H   TYR A   3      27.892  42.916  28.523  0.00  0.00    +0.150 HD
ATOM     71  O   ALA A   2      27.628  44.343  25.707  0.00  0.00    -0.273 OA
BRANCH  68  72
ATOM     72  CA  ALA A   2      25.876  43.264  26.958  0.00  0.00    +0.149 C 
ATOM     73  CB  ALA A   2      25.863  41.808  27.413  0.00  0.00    +0.031 C 
BRANCH  72  76
ATOM     74  C   LEU A   1      24.383  44.587  25.590  0.00  0.00    +0.238 C 
ATOM     75  O   LEU A   1      24.463  45.523  26.392  0.00  0.00    -0.274 OA
ATOM     76  N   ALA A   2      25.038  43.440  25.766  0.00  0.00    -0.297 N 
ATOM     77  H   ALA A   2      24.956  42.676  25.065  0.00  0.00    +0.150 HD
BRANCH  74  78
ATOM     78  CA  LEU A   1      23.504  44.727  24.353  0.00  0.00    +0.145 C 
BRANCH  78  79
ATOM     79  N   LEU A   1      23.390  43.545  23.511  0.00  0.00    -0.238 NA
ATOM     80  H   LEU A   1      22.646  42.847  23.713  0.00  0.00    +0.142 HD
ENDBRANCH  78  79
BRANCH  78  81
ATOM     81  CB  LEU A   1      22.085  45.182  24.770  0.00  0.00    +0.026 C 
BRANCH  81  82
ATOM     82  CG  LEU A   1      21.321  45.725  23.570  0.00  0.00    +0.002 C 
ATOM     83  CD2 LEU A   1      19.837  45.833  23.855  0.00  0.00    +0.000 C 
ATOM     84  CD1 LEU A   1      21.921  47.090  23.227  0.00  0.00    +0.000 C 
ENDBRANCH  81  82
ENDBRANCH  78  81
ENDBRANCH  74  78
ENDBRANCH  72  76
ENDBRANCH  68  72
ENDBRANCH  67  69
BRANCH  67  85
ATOM     85  CB  TYR A   3      30.067  44.212  29.091  0.00  0.00    +0.055 C 
BRANCH  85  86
ATOM     86  CG  TYR A   3      29.116  44.977  29.979  0.00  0.00    -0.020 A 
ATOM     87  CD2 TYR A   3      28.179  44.302  30.772  0.00  0.00    -0.001 A 
ATOM     88  CE2 TYR A   3      27.338  45.009  31.651  0.00  0.00    +0.036 A 
ATOM     89  CZ  TYR A   3      27.428  46.394  31.725  0.00  0.00    +0.134 A 
ATOM     90  CE1 TYR A   3      28.342  47.089  30.931  0.00  0.00    +0.036 A 
ATOM     91  CD1 TYR A   3      29.179  46.379  30.070  0.00  0.00    -0.001 A 
BRANCH  89  92
ATOM     92  OH  TYR A   3      26.630  47.064  32.615  0.00  0.00    -0.506 OA
ATOM     93  HH  TYR A   3      26.049  46.417  33.088  0.00  0.00    +0.292 HD
ENDBRANCH  89  92
ENDBRANCH  85  86
ENDBRANCH  67  85
ENDBRANCH  63  67
ENDBRANCH  61  65
ENDBRANCH  57  61
ENDBRANCH  56  58
BRANCH  56  94
ATOM     94  CB  GLU A   5      33.815  40.861  29.539  0.00  0.00    +0.041 C 
BRANCH  94  95
ATOM     95  CG  GLU A   5      34.223  39.521  30.123  0.00  0.00    +0.116 C 
BRANCH  95  96
ATOM     96  CD  GLU A   5      35.038  39.639  31.392  0.00  0.00    +0.365 C 
ATOM     97  OE2 GLU A   5      34.580  40.306  32.355  0.00  0.00    -0.246 OA
ATOM     98  OE1 GLU A   5      36.145  39.050  31.417  0.00  0.00    -0.246 OA
ENDBRANCH  95  96
ENDBRANCH  94  95
ENDBRANCH  56  94
ENDBRANCH  52  56
ENDBRANCH   1  54
BRANCH   1  99
ATOM     99  CB  ILE A   6      30.403  37.911  26.969  0.00  0.00    +0.027 C 
ATOM    100  CG2 ILE A   6      30.560  37.522  28.431  0.00  0.00    +0.002 C 
BRANCH  99 101
ATOM    101  CG1 ILE A   6      29.406  39.068  26.853  0.00  0.00    +0.002 C 
ATOM    102  CD1 ILE A   6      28.009  38.725  27.391  0.00  0.00    +0.000 C 
ENDBRANCH  99 101
ENDBRANCH   1  99
TORSDOF 39
REMARK  Name = ../refined-set-2016/1m4h/1m4h_pocket.pdb
REMARK  293 active torsions:
REMARK  status: ('A' for Active; 'I' for Inactive)
REMARK    1  A    between atoms: _1  and  _3
REMARK    2  A    between atoms: _3  and  _4
REMARK    3  A    between atoms: _3  and  _6
REMARK    4  A    between atoms: _6  and  _7
REMARK    5  A    between atoms: _7  and  _8
REMARK    6  A    between atoms: _8  and  _9
REMARK    7  A    between atoms: _9  and  _10
REMARK    8  A    between atoms: _14  and  _16
REMARK    9  A    between atoms: _16  and  _17
REMARK   10  A    between atoms: _16  and  _19
REMARK   11  A    between atoms: _19  and  _20
REMARK   12  A    between atoms: _22  and  _24
REMARK   13  A    between atoms: _24  and  _25
REMARK   14  A    between atoms: _27  and  _29
REMARK   15  A    between atoms: _29  and  _30
REMARK   16  A    between atoms: _29  and  _32
REMARK   17  A    between atoms: _32  and  _33
REMARK   18  A    between atoms: _33  and  _34
REMARK   19  A    between atoms: _39  and  _41
REMARK   20  A    between atoms: _41  and  _42
REMARK   21  A    between atoms: _44  and  _46
REMARK   22  A    between atoms: _46  and  _47
REMARK   23  A    between atoms: _46  and  _49
REMARK   24  A    between atoms: _49  and  _50
REMARK   25  A    between atoms: _55  and  _56
REMARK   26  A    between atoms: _58  and  _60
REMARK   27  A    between atoms: _60  and  _61
REMARK   28  A    between atoms: _60  and  _63
REMARK   29  A    between atoms: _63  and  _64
REMARK   30  A    between atoms: _67  and  _69
REMARK   31  A    between atoms: _69  and  _70
REMARK   32  A    between atoms: _69  and  _72
REMARK   33  A    between atoms: _75  and  _77
REMARK   34  A    between atoms: _77  and  _78
REMARK   35  A    between atoms: _77  and  _80
REMARK   36  A    between atoms: _80  and  _81
REMARK   37  A    between atoms: _84  and  _86
REMARK   38  A    between atoms: _86  and  _87
REMARK   39  A    between atoms: _86  and  _89
REMARK   40  A    between atoms: _89  and  _90
REMARK   41  A    between atoms: _93  and  _95
REMARK   42  A    between atoms: _95  and  _96
REMARK   43  A    between atoms: _98  and  _100
REMARK   44  A    between atoms: _100  and  _101
REMARK   45  A    between atoms: _100  and  _103
REMARK   46  A    between atoms: _103  and  _104
REMARK   47  A    between atoms: _106  and  _108
REMARK   48  A    between atoms: _108  and  _109
REMARK   49  A    between atoms: _108  and  _111
REMARK   50  A    between atoms: _111  and  _112
REMARK   51  A    between atoms: _114  and  _116
REMARK   52  A    between atoms: _116  and  _117
REMARK   53  A    between atoms: _116  and  _119
REMARK   54  A    between atoms: _119  and  _120
REMARK   55  A    between atoms: _125  and  _127
REMARK   56  A    between atoms: _127  and  _128
REMARK   57  A    between atoms: _127  and  _130
REMARK   58  A    between atoms: _130  and  _131
REMARK   59  A    between atoms: _136  and  _137
REMARK   60  A    between atoms: _139  and  _141
REMARK   61  A    between atoms: _141  and  _142
REMARK   62  A    between atoms: _141  and  _144
REMARK   63  A    between atoms: _148  and  _149
REMARK   64  A    between atoms: _154  and  _156
REMARK   65  A    between atoms: _156  and  _157
REMARK   66  A    between atoms: _156  and  _159
REMARK   67  A    between atoms: _159  and  _160
REMARK   68  A    between atoms: _165  and  _166
REMARK   69  A    between atoms: _168  and  _170
REMARK   70  A    between atoms: _170  and  _171
REMARK   71  A    between atoms: _170  and  _173
REMARK   72  A    between atoms: _173  and  _174
REMARK   73  A    between atoms: _177  and  _179
REMARK   74  A    between atoms: _179  and  _180
REMARK   75  A    between atoms: _179  and  _182
REMARK   76  A    between atoms: _182  and  _183
REMARK   77  A    between atoms: _183  and  _184
REMARK   78  A    between atoms: _189  and  _191
REMARK   79  A    between atoms: _191  and  _192
REMARK   80  A    between atoms: _194  and  _196
REMARK   81  A    between atoms: _196  and  _197
REMARK   82  A    between atoms: _196  and  _199
REMARK   83  A    between atoms: _199  and  _200
REMARK   84  A    between atoms: _200  and  _201
REMARK   85  A    between atoms: _201  and  _202
REMARK   86  A    between atoms: _202  and  _203
REMARK   87  A    between atoms: _207  and  _209
REMARK   88  A    between atoms: _209  and  _210
REMARK   89  A    between atoms: _209  and  _212
REMARK   90  A    between atoms: _212  and  _213
REMARK   91  A    between atoms: _223  and  _225
REMARK   92  A    between atoms: _225  and  _226
REMARK   93  A    between atoms: _225  and  _228
REMARK   94  A    between atoms: _228  and  _229
REMARK   95  A    between atoms: _232  and  _234
REMARK   96  A    between atoms: _234  and  _235
REMARK   97  A    between atoms: _234  and  _237
REMARK   98  A    between atoms: _237  and  _238
REMARK   99  A    between atoms: _238  and  _239
REMARK  100  A    between atoms: _239  and  _240
REMARK  101  A    between atoms: _240  and  _241
REMARK  102  A    between atoms: _245  and  _247
REMARK  103  A    between atoms: _247  and  _248
REMARK  104  A    between atoms: _247  and  _250
REMARK  105  A    between atoms: _250  and  _251
REMARK  106  A    between atoms: _257  and  _259
REMARK  107  A    between atoms: _259  and  _260
REMARK  108  A    between atoms: _259  and  _262
REMARK  109  A    between atoms: _262  and  _263
REMARK  110  A    between atoms: _269  and  _271
REMARK  111  A    between atoms: _271  and  _272
REMARK  112  A    between atoms: _271  and  _274
REMARK  113  A    between atoms: _274  and  _275
REMARK  114  A    between atoms: _278  and  _280
REMARK  115  A    between atoms: _280  and  _281
REMARK  116  A    between atoms: _280  and  _283
REMARK  117  A    between atoms: _283  and  _284
REMARK  118  A    between atoms: _286  and  _288
REMARK  119  A    between atoms: _288  and  _289
REMARK  120  A    between atoms: _288  and  _291
REMARK  121  A    between atoms: _291  and  _292
REMARK  122  A    between atoms: _302  and  _304
REMARK  123  A    between atoms: _304  and  _305
REMARK  124  A    between atoms: _307  and  _309
REMARK  125  A    between atoms: _309  and  _310
REMARK  126  A    between atoms: _309  and  _312
REMARK  127  A    between atoms: _312  and  _313
REMARK  128  A    between atoms: _316  and  _318
REMARK  129  A    between atoms: _318  and  _319
REMARK  130  A    between atoms: _318  and  _321
REMARK  131  A    between atoms: _321  and  _322
REMARK  132  A    between atoms: _325  and  _327
REMARK  133  A    between atoms: _327  and  _328
REMARK  134  A    between atoms: _327  and  _330
REMARK  135  A    between atoms: _330  and  _331
REMARK  136  A    between atoms: _334  and  _336
REMARK  137  A    between atoms: _336  and  _337
REMARK  138  A    between atoms: _340  and  _342
REMARK  139  A    between atoms: _342  and  _343
REMARK  140  A    between atoms: _342  and  _345
REMARK  141  A    between atoms: _345  and  _346
REMARK  142  A    between atoms: _351  and  _352
REMARK  143  A    between atoms: _354  and  _356
REMARK  144  A    between atoms: _356  and  _357
REMARK  145  A    between atoms: _360  and  _362
REMARK  146  A    between atoms: _362  and  _363
REMARK  147  A    between atoms: _362  and  _365
REMARK  148  A    between atoms: _365  and  _366
REMARK  149  A    between atoms: _366  and  _367
REMARK  150  A    between atoms: _370  and  _372
REMARK  151  A    between atoms: _372  and  _373
REMARK  152  A    between atoms: _372  and  _375
REMARK  153  A    between atoms: _375  and  _376
REMARK  154  A    between atoms: _379  and  _381
REMARK  155  A    between atoms: _381  and  _382
REMARK  156  A    between atoms: _385  and  _387
REMARK  157  A    between atoms: _387  and  _388
REMARK  158  A    between atoms: _387  and  _390
REMARK  159  A    between atoms: _390  and  _391
REMARK  160  A    between atoms: _391  and  _392
REMARK  161  A    between atoms: _392  and  _393
REMARK  162  A    between atoms: _403  and  _404
REMARK  163  A    between atoms: _409  and  _411
REMARK  164  A    between atoms: _411  and  _412
REMARK  165  A    between atoms: _411  and  _414
REMARK  166  A    between atoms: _414  and  _415
REMARK  167  A    between atoms: _418  and  _420
REMARK  168  A    between atoms: _420  and  _421
REMARK  169  A    between atoms: _420  and  _423
REMARK  170  A    between atoms: _423  and  _424
REMARK  171  A    between atoms: _427  and  _429
REMARK  172  A    between atoms: _429  and  _430
REMARK  173  A    between atoms: _429  and  _432
REMARK  174  A    between atoms: _432  and  _433
REMARK  175  A    between atoms: _433  and  _434
REMARK  176  A    between atoms: _434  and  _435
REMARK  177  A    between atoms: _444  and  _446
REMARK  178  A    between atoms: _446  and  _447
REMARK  179  A    between atoms: _446  and  _449
REMARK  180  A    between atoms: _449  and  _450
REMARK  181  A    between atoms: _460  and  _462
REMARK  182  A    between atoms: _462  and  _463
REMARK  183  A    between atoms: _462  and  _465
REMARK  184  A    between atoms: _465  and  _466
REMARK  185  A    between atoms: _471  and  _472
REMARK  186  A    between atoms: _474  and  _476
REMARK  187  A    between atoms: _476  and  _477
REMARK  188  A    between atoms: _476  and  _479
REMARK  189  A    between atoms: _479  and  _480
REMARK  190  A    between atoms: _480  and  _481
REMARK  191  A    between atoms: _481  and  _482
REMARK  192  A    between atoms: _482  and  _483
REMARK  193  A    between atoms: _487  and  _489
REMARK  194  A    between atoms: _489  and  _490
REMARK  195  A    between atoms: _489  and  _492
REMARK  196  A    between atoms: _492  and  _493
REMARK  197  A    between atoms: _496  and  _498
REMARK  198  A    between atoms: _498  and  _499
REMARK  199  A    between atoms: _498  and  _501
REMARK  200  A    between atoms: _504  and  _506
REMARK  201  A    between atoms: _506  and  _507
REMARK  202  A    between atoms: _506  and  _509
REMARK  203  A    between atoms: _509  and  _510
REMARK  204  A    between atoms: _513  and  _515
REMARK  205  A    between atoms: _515  and  _516
REMARK  206  A    between atoms: _515  and  _518
REMARK  207  A    between atoms: _518  and  _519
REMARK  208  A    between atoms: _521  and  _523
REMARK  209  A    between atoms: _523  and  _524
REMARK  210  A    between atoms: _526  and  _528
REMARK  211  A    between atoms: _528  and  _529
REMARK  212  A    between atoms: _528  and  _531
REMARK  213  A    between atoms: _531  and  _532
REMARK  214  A    between atoms: _535  and  _537
REMARK  215  A    between atoms: _537  and  _538
REMARK  216  A    between atoms: _537  and  _540
REMARK  217  A    between atoms: _540  and  _541
REMARK  218  A    between atoms: _544  and  _546
REMARK  219  A    between atoms: _546  and  _547
REMARK  220  A    between atoms: _546  and  _549
REMARK  221  A    between atoms: _549  and  _550
REMARK  222  A    between atoms: _555  and  _557
REMARK  223  A    between atoms: _557  and  _558
REMARK  224  A    between atoms: _557  and  _560
REMARK  225  A    between atoms: _560  and  _561
REMARK  226  A    between atoms: _564  and  _566
REMARK  227  A    between atoms: _566  and  _567
REMARK  228  A    between atoms: _566  and  _569
REMARK  229  A    between atoms: _569  and  _570
REMARK  230  A    between atoms: _570  and  _571
REMARK  231  A    between atoms: _571  and  _572
REMARK  232  A    between atoms: _581  and  _583
REMARK  233  A    between atoms: _583  and  _584
REMARK  234  A    between atoms: _586  and  _588
REMARK  235  A    between atoms: _588  and  _589
REMARK  236  A    between atoms: _588  and  _591
REMARK  237  A    between atoms: _591  and  _592
REMARK  238  A    between atoms: _592  and  _593
REMARK  239  A    between atoms: _596  and  _598
REMARK  240  A    between atoms: _598  and  _599
REMARK  241  A    between atoms: _598  and  _601
REMARK  242  A    between atoms: _601  and  _602
REMARK  243  A    between atoms: _602  and  _603
REMARK  244  A    between atoms: _603  and  _604
REMARK  245  A    between atoms: _614  and  _615
REMARK  246  A    between atoms: _620  and  _622
REMARK  247  A    between atoms: _622  and  _623
REMARK  248  A    between atoms: _622  and  _625
REMARK  249  A    between atoms: _628  and  _630
REMARK  250  A    between atoms: _630  and  _631
REMARK  251  A    between atoms: _630  and  _633
REMARK  252  A    between atoms: _633  and  _634
REMARK  253  A    between atoms: _634  and  _635
REMARK  254  A    between atoms: _638  and  _640
REMARK  255  A    between atoms: _640  and  _641
REMARK  256  A    between atoms: _640  and  _643
REMARK  257  A    between atoms: _643  and  _644
REMARK  258  A    between atoms: _644  and  _645
REMARK  259  A    between atoms: _645  and  _646
REMARK  260  A    between atoms: _646  and  _647
REMARK  261  A    between atoms: _651  and  _653
REMARK  262  A    between atoms: _653  and  _654
REMARK  263  A    between atoms: _657  and  _659
REMARK  264  A    between atoms: _659  and  _660
REMARK  265  A    between atoms: _659  and  _662
REMARK  266  A    between atoms: _662  and  _663
REMARK  267  A    between atoms: _665  and  _667
REMARK  268  A    between atoms: _667  and  _668
REMARK  269  A    between atoms: _667  and  _670
REMARK  270  A    between atoms: _670  and  _671
REMARK  271  A    between atoms: _671  and  _672
REMARK  272  A    between atoms: _677  and  _679
REMARK  273  A    between atoms: _679  and  _680
REMARK  274  A    between atoms: _679  and  _682
REMARK  275  A    between atoms: _682  and  _683
REMARK  276  A    between atoms: _685  and  _687
REMARK  277  A    between atoms: _687  and  _688
REMARK  278  A    between atoms: _687  and  _690
REMARK  279  A    between atoms: _690  and  _691
REMARK  280  A    between atoms: _694  and  _696
REMARK  281  A    between atoms: _696  and  _697
REMARK  282  A    between atoms: _696  and  _699
REMARK  283  A    between atoms: _699  and  _700
REMARK  284  A    between atoms: _703  and  _705
REMARK  285  A    between atoms: _705  and  _706
REMARK  286  A    between atoms: _705  and  _708
REMARK  287  A    between atoms: _711  and  _713
REMARK  288  A    between atoms: _713  and  _714
REMARK  289  A    between atoms: _716  and  _718
REMARK  290  A    between atoms: _718  and  _719
REMARK  291  A    between atoms: _722  and  _724
REMARK  292  A    between atoms: _724  and  _725
REMARK  293  A    between atoms: _724  and  _727
REMARK                            x       y       z     vdW  Elec       q    Type
REMARK                         _______ _______ _______ _____ _____    ______ ____
ROOT
ATOM      1  NE  ARG A   1      32.943  38.691  35.910  0.00  0.00    -0.265 N 
ATOM      2  HE  ARG A   1      32.534  38.442  36.833  0.00  0.00    +0.259 HD
ATOM      3  CZ  ARG A   1      33.390  37.705  35.133  0.00  0.00    +0.342 C 
ATOM      4  NH2 ARG A   1      33.291  36.430  35.520  0.00  0.00    -0.292 N 
ATOM      5 HH21 ARG A   1      32.861  36.197  36.438  0.00  0.00    +0.255 HD
ATOM      6 HH22 ARG A   1      33.644  35.671  34.903  0.00  0.00    +0.255 HD
ATOM      7  NH1 ARG A   1      33.925  37.992  33.952  0.00  0.00    -0.292 N 
ATOM      8 HH11 ARG A   1      33.993  38.981  33.639  0.00  0.00    +0.255 HD
ATOM      9 HH12 ARG A   1      34.276  37.227  33.340  0.00  0.00    +0.255 HD
ENDROOT
BRANCH   1  10
ATOM     10  CD  ARG A   1      32.996  40.101  35.537  0.00  0.00    +0.174 C 
BRANCH  10  11
ATOM     11  CG  ARG A   1      32.512  41.057  36.622  0.00  0.00    +0.045 C 
BRANCH  11  12
ATOM     12  CB  ARG A   1      31.058  40.861  36.984  0.00  0.00    +0.029 C 
BRANCH  12  13
ATOM     13  CA  ARG A   1      30.248  42.165  37.034  0.00  0.00    +0.133 C 
BRANCH  13  14
ATOM     14  N   ARG A   1      29.081  42.008  37.886  0.00  0.00    -0.239 NA
ATOM     15  H   ARG A   1      28.209  41.607  37.486  0.00  0.00    +0.142 HD
ENDBRANCH  13  14
BRANCH  13  16
ATOM     16  C   ARG A   1      29.750  42.510  35.645  0.00  0.00    +0.224 C 
ATOM     17  O   ARG A   1      28.739  41.981  35.188  0.00  0.00    -0.287 OA
ENDBRANCH  13  16
ENDBRANCH  12  13
ENDBRANCH  11  12
ENDBRANCH  10  11
ENDBRANCH   1  10
TORSDOF 6
REMARK  Name = ../refined-set-2016/1m4h/1m4h_pocket.pdb
REMARK  293 active torsions:
REMARK  status: ('A' for Active; 'I' for Inactive)
REMARK    1  A    between atoms: _1  and  _3
REMARK    2  A    between atoms: _3  and  _4
REMARK    3  A    between atoms: _3  and  _6
REMARK    4  A    between atoms: _6  and  _7
REMARK    5  A    between atoms: _7  and  _8
REMARK    6  A    between atoms: _8  and  _9
REMARK    7  A    between atoms: _9  and  _10
REMARK    8  A    between atoms: _14  and  _16
REMARK    9  A    between atoms: _16  and  _17
REMARK   10  A    between atoms: _16  and  _19
REMARK   11  A    between atoms: _19  and  _20
REMARK   12  A    between atoms: _22  and  _24
REMARK   13  A    between atoms: _24  and  _25
REMARK   14  A    between atoms: _27  and  _29
REMARK   15  A    between atoms: _29  and  _30
REMARK   16  A    between atoms: _29  and  _32
REMARK   17  A    between atoms: _32  and  _33
REMARK   18  A    between atoms: _33  and  _34
REMARK   19  A    between atoms: _39  and  _41
REMARK   20  A    between atoms: _41  and  _42
REMARK   21  A    between atoms: _44  and  _46
REMARK   22  A    between atoms: _46  and  _47
REMARK   23  A    between atoms: _46  and  _49
REMARK   24  A    between atoms: _49  and  _50
REMARK   25  A    between atoms: _55  and  _56
REMARK   26  A    between atoms: _58  and  _60
REMARK   27  A    between atoms: _60  and  _61
REMARK   28  A    between atoms: _60  and  _63
REMARK   29  A    between atoms: _63  and  _64
REMARK   30  A    between atoms: _67  and  _69
REMARK   31  A    between atoms: _69  and  _70
REMARK   32  A    between atoms: _69  and  _72
REMARK   33  A    between atoms: _75  and  _77
REMARK   34  A    between atoms: _77  and  _78
REMARK   35  A    between atoms: _77  and  _80
REMARK   36  A    between atoms: _80  and  _81
REMARK   37  A    between atoms: _84  and  _86
REMARK   38  A    between atoms: _86  and  _87
REMARK   39  A    between atoms: _86  and  _89
REMARK   40  A    between atoms: _89  and  _90
REMARK   41  A    between atoms: _93  and  _95
REMARK   42  A    between atoms: _95  and  _96
REMARK   43  A    between atoms: _98  and  _100
REMARK   44  A    between atoms: _100  and  _101
REMARK   45  A    between atoms: _100  and  _103
REMARK   46  A    between atoms: _103  and  _104
REMARK   47  A    between atoms: _106  and  _108
REMARK   48  A    between atoms: _108  and  _109
REMARK   49  A    between atoms: _108  and  _111
REMARK   50  A    between atoms: _111  and  _112
REMARK   51  A    between atoms: _114  and  _116
REMARK   52  A    between atoms: _116  and  _117
REMARK   53  A    between atoms: _116  and  _119
REMARK   54  A    between atoms: _119  and  _120
REMARK   55  A    between atoms: _125  and  _127
REMARK   56  A    between atoms: _127  and  _128
REMARK   57  A    between atoms: _127  and  _130
REMARK   58  A    between atoms: _130  and  _131
REMARK   59  A    between atoms: _136  and  _137
REMARK   60  A    between atoms: _139  and  _141
REMARK   61  A    between atoms: _141  and  _142
REMARK   62  A    between atoms: _141  and  _144
REMARK   63  A    between atoms: _148  and  _149
REMARK   64  A    between atoms: _154  and  _156
REMARK   65  A    between atoms: _156  and  _157
REMARK   66  A    between atoms: _156  and  _159
REMARK   67  A    between atoms: _159  and  _160
REMARK   68  A    between atoms: _165  and  _166
REMARK   69  A    between atoms: _168  and  _170
REMARK   70  A    between atoms: _170  and  _171
REMARK   71  A    between atoms: _170  and  _173
REMARK   72  A    between atoms: _173  and  _174
REMARK   73  A    between atoms: _177  and  _179
REMARK   74  A    between atoms: _179  and  _180
REMARK   75  A    between atoms: _179  and  _182
REMARK   76  A    between atoms: _182  and  _183
REMARK   77  A    between atoms: _183  and  _184
REMARK   78  A    between atoms: _189  and  _191
REMARK   79  A    between atoms: _191  and  _192
REMARK   80  A    between atoms: _194  and  _196
REMARK   81  A    between atoms: _196  and  _197
REMARK   82  A    between atoms: _196  and  _199
REMARK   83  A    between atoms: _199  and  _200
REMARK   84  A    between atoms: _200  and  _201
REMARK   85  A    between atoms: _201  and  _202
REMARK   86  A    between atoms: _202  and  _203
REMARK   87  A    between atoms: _207  and  _209
REMARK   88  A    between atoms: _209  and  _210
REMARK   89  A    between atoms: _209  and  _212
REMARK   90  A    between atoms: _212  and  _213
REMARK   91  A    between atoms: _223  and  _225
REMARK   92  A    between atoms: _225  and  _226
REMARK   93  A    between atoms: _225  and  _228
REMARK   94  A    between atoms: _228  and  _229
REMARK   95  A    between atoms: _232  and  _234
REMARK   96  A    between atoms: _234  and  _235
REMARK   97  A    between atoms: _234  and  _237
REMARK   98  A    between atoms: _237  and  _238
REMARK   99  A    between atoms: _238  and  _239
REMARK  100  A    between atoms: _239  and  _240
REMARK  101  A    between atoms: _240  and  _241
REMARK  102  A    between atoms: _245  and  _247
REMARK  103  A    between atoms: _247  and  _248
REMARK  104  A    between atoms: _247  and  _250
REMARK  105  A    between atoms: _250  and  _251
REMARK  106  A    between atoms: _257  and  _259
REMARK  107  A    between atoms: _259  and  _260
REMARK  108  A    between atoms: _259  and  _262
REMARK  109  A    between atoms: _262  and  _263
REMARK  110  A    between atoms: _269  and  _271
REMARK  111  A    between atoms: _271  and  _272
REMARK  112  A    between atoms: _271  and  _274
REMARK  113  A    between atoms: _274  and  _275
REMARK  114  A    between atoms: _278  and  _280
REMARK  115  A    between atoms: _280  and  _281
REMARK  116  A    between atoms: _280  and  _283
REMARK  117  A    between atoms: _283  and  _284
REMARK  118  A    between atoms: _286  and  _288
REMARK  119  A    between atoms: _288  and  _289
REMARK  120  A    between atoms: _288  and  _291
REMARK  121  A    between atoms: _291  and  _292
REMARK  122  A    between atoms: _302  and  _304
REMARK  123  A    between atoms: _304  and  _305
REMARK  124  A    between atoms: _307  and  _309
REMARK  125  A    between atoms: _309  and  _310
REMARK  126  A    between atoms: _309  and  _312
REMARK  127  A    between atoms: _312  and  _313
REMARK  128  A    between atoms: _316  and  _318
REMARK  129  A    between atoms: _318  and  _319
REMARK  130  A    between atoms: _318  and  _321
REMARK  131  A    between atoms: _321  and  _322
REMARK  132  A    between atoms: _325  and  _327
REMARK  133  A    between atoms: _327  and  _328
REMARK  134  A    between atoms: _327  and  _330
REMARK  135  A    between atoms: _330  and  _331
REMARK  136  A    between atoms: _334  and  _336
REMARK  137  A    between atoms: _336  and  _337
REMARK  138  A    between atoms: _340  and  _342
REMARK  139  A    between atoms: _342  and  _343
REMARK  140  A    between atoms: _342  and  _345
REMARK  141  A    between atoms: _345  and  _346
REMARK  142  A    between atoms: _351  and  _352
REMARK  143  A    between atoms: _354  and  _356
REMARK  144  A    between atoms: _356  and  _357
REMARK  145  A    between atoms: _360  and  _362
REMARK  146  A    between atoms: _362  and  _363
REMARK  147  A    between atoms: _362  and  _365
REMARK  148  A    between atoms: _365  and  _366
REMARK  149  A    between atoms: _366  and  _367
REMARK  150  A    between atoms: _370  and  _372
REMARK  151  A    between atoms: _372  and  _373
REMARK  152  A    between atoms: _372  and  _375
REMARK  153  A    between atoms: _375  and  _376
REMARK  154  A    between atoms: _379  and  _381
REMARK  155  A    between atoms: _381  and  _382
REMARK  156  A    between atoms: _385  and  _387
REMARK  157  A    between atoms: _387  and  _388
REMARK  158  A    between atoms: _387  and  _390
REMARK  159  A    between atoms: _390  and  _391
REMARK  160  A    between atoms: _391  and  _392
REMARK  161  A    between atoms: _392  and  _393
REMARK  162  A    between atoms: _403  and  _404
REMARK  163  A    between atoms: _409  and  _411
REMARK  164  A    between atoms: _411  and  _412
REMARK  165  A    between atoms: _411  and  _414
REMARK  166  A    between atoms: _414  and  _415
REMARK  167  A    between atoms: _418  and  _420
REMARK  168  A    between atoms: _420  and  _421
REMARK  169  A    between atoms: _420  and  _423
REMARK  170  A    between atoms: _423  and  _424
REMARK  171  A    between atoms: _427  and  _429
REMARK  172  A    between atoms: _429  and  _430
REMARK  173  A    between atoms: _429  and  _432
REMARK  174  A    between atoms: _432  and  _433
REMARK  175  A    between atoms: _433  and  _434
REMARK  176  A    between atoms: _434  and  _435
REMARK  177  A    between atoms: _444  and  _446
REMARK  178  A    between atoms: _446  and  _447
REMARK  179  A    between atoms: _446  and  _449
REMARK  180  A    between atoms: _449  and  _450
REMARK  181  A    between atoms: _460  and  _462
REMARK  182  A    between atoms: _462  and  _463
REMARK  183  A    between atoms: _462  and  _465
REMARK  184  A    between atoms: _465  and  _466
REMARK  185  A    between atoms: _471  and  _472
REMARK  186  A    between atoms: _474  and  _476
REMARK  187  A    between atoms: _476  and  _477
REMARK  188  A    between atoms: _476  and  _479
REMARK  189  A    between atoms: _479  and  _480
REMARK  190  A    between atoms: _480  and  _481
REMARK  191  A    between atoms: _481  and  _482
REMARK  192  A    between atoms: _482  and  _483
REMARK  193  A    between atoms: _487  and  _489
REMARK  194  A    between atoms: _489  and  _490
REMARK  195  A    between atoms: _489  and  _492
REMARK  196  A    between atoms: _492  and  _493
REMARK  197  A    between atoms: _496  and  _498
REMARK  198  A    between atoms: _498  and  _499
REMARK  199  A    between atoms: _498  and  _501
REMARK  200  A    between atoms: _504  and  _506
REMARK  201  A    between atoms: _506  and  _507
REMARK  202  A    between atoms: _506  and  _509
REMARK  203  A    between atoms: _509  and  _510
REMARK  204  A    between atoms: _513  and  _515
REMARK  205  A    between atoms: _515  and  _516
REMARK  206  A    between atoms: _515  and  _518
REMARK  207  A    between atoms: _518  and  _519
REMARK  208  A    between atoms: _521  and  _523
REMARK  209  A    between atoms: _523  and  _524
REMARK  210  A    between atoms: _526  and  _528
REMARK  211  A    between atoms: _528  and  _529
REMARK  212  A    between atoms: _528  and  _531
REMARK  213  A    between atoms: _531  and  _532
REMARK  214  A    between atoms: _535  and  _537
REMARK  215  A    between atoms: _537  and  _538
REMARK  216  A    between atoms: _537  and  _540
REMARK  217  A    between atoms: _540  and  _541
REMARK  218  A    between atoms: _544  and  _546
REMARK  219  A    between atoms: _546  and  _547
REMARK  220  A    between atoms: _546  and  _549
REMARK  221  A    between atoms: _549  and  _550
REMARK  222  A    between atoms: _555  and  _557
REMARK  223  A    between atoms: _557  and  _558
REMARK  224  A    between atoms: _557  and  _560
REMARK  225  A    between atoms: _560  and  _561
REMARK  226  A    between atoms: _564  and  _566
REMARK  227  A    between atoms: _566  and  _567
REMARK  228  A    between atoms: _566  and  _569
REMARK  229  A    between atoms: _569  and  _570
REMARK  230  A    between atoms: _570  and  _571
REMARK  231  A    between atoms: _571  and  _572
REMARK  232  A    between atoms: _581  and  _583
REMARK  233  A    between atoms: _583  and  _584
REMARK  234  A    between atoms: _586  and  _588
REMARK  235  A    between atoms: _588  and  _589
REMARK  236  A    between atoms: _588  and  _591
REMARK  237  A    between atoms: _591  and  _592
REMARK  238  A    between atoms: _592  and  _593
REMARK  239  A    between atoms: _596  and  _598
REMARK  240  A    between atoms: _598  and  _599
REMARK  241  A    between atoms: _598  and  _601
REMARK  242  A    between atoms: _601  and  _602
REMARK  243  A    between atoms: _602  and  _603
REMARK  244  A    between atoms: _603  and  _604
REMARK  245  A    between atoms: _614  and  _615
REMARK  246  A    between atoms: _620  and  _622
REMARK  247  A    between atoms: _622  and  _623
REMARK  248  A    between atoms: _622  and  _625
REMARK  249  A    between atoms: _628  and  _630
REMARK  250  A    between atoms: _630  and  _631
REMARK  251  A    between atoms: _630  and  _633
REMARK  252  A    between atoms: _633  and  _634
REMARK  253  A    between atoms: _634  and  _635
REMARK  254  A    between atoms: _638  and  _640
REMARK  255  A    between atoms: _640  and  _641
REMARK  256  A    between atoms: _640  and  _643
REMARK  257  A    between atoms: _643  and  _644
REMARK  258  A    between atoms: _644  and  _645
REMARK  259  A    between atoms: _645  and  _646
REMARK  260  A    between atoms: _646  and  _647
REMARK  261  A    between atoms: _651  and  _653
REMARK  262  A    between atoms: _653  and  _654
REMARK  263  A    between atoms: _657  and  _659
REMARK  264  A    between atoms: _659  and  _660
REMARK  265  A    between atoms: _659  and  _662
REMARK  266  A    between atoms: _662  and  _663
REMARK  267  A    between atoms: _665  and  _667
REMARK  268  A    between atoms: _667  and  _668
REMARK  269  A    between atoms: _667  and  _670
REMARK  270  A    between atoms: _670  and  _671
REMARK  271  A    between atoms: _671  and  _672
REMARK  272  A    between atoms: _677  and  _679
REMARK  273  A    between atoms: _679  and  _680
REMARK  274  A    between atoms: _679  and  _682
REMARK  275  A    between atoms: _682  and  _683
REMARK  276  A    between atoms: _685  and  _687
REMARK  277  A    between atoms: _687  and  _688
REMARK  278  A    between atoms: _687  and  _690
REMARK  279  A    between atoms: _690  and  _691
REMARK  280  A    between atoms: _694  and  _696
REMARK  281  A    between atoms: _696  and  _697
REMARK  282  A    between atoms: _696  and  _699
REMARK  283  A    between atoms: _699  and  _700
REMARK  284  A    between atoms: _703  and  _705
REMARK  285  A    between atoms: _705  and  _706
REMARK  286  A    between atoms: _705  and  _708
REMARK  287  A    between atoms: _711  and  _713
REMARK  288  A    between atoms: _713  and  _714
REMARK  289  A    between atoms: _716  and  _718
REMARK  290  A    between atoms: _718  and  _719
REMARK  291  A    between atoms: _722  and  _724
REMARK  292  A    between atoms: _724  and  _725
REMARK  293  A    between atoms: _724  and  _727
REMARK                            x       y       z     vdW  Elec       q    Type
REMARK                         _______ _______ _______ _____ _____    ______ ____
ROOT
ATOM      1  C   TRP A   1      28.624  40.604  30.737  0.00  0.00    +0.239 C 
ATOM      2  N   TYR A   2      27.937  39.665  31.380  0.00  0.00    -0.298 N 
ATOM      3  H   TYR A   2      28.414  39.075  32.091  0.00  0.00    +0.150 HD
ATOM      4  O   TRP A   1      28.148  41.261  29.814  0.00  0.00    -0.274 OA
ENDROOT
BRANCH   1   5
ATOM      5  CA  TRP A   1      30.048  40.883  31.174  0.00  0.00    +0.149 C 
BRANCH   5   6
ATOM      6  N   TRP A   1      29.773  41.831  32.237  0.00  0.00    -0.238 NA
ATOM      7  H   TRP A   1      28.907  41.706  32.799  0.00  0.00    +0.142 HD
ENDBRANCH   5   6
BRANCH   5   8
ATOM      8  CB  TRP A   1      30.824  39.652  31.672  0.00  0.00    +0.054 C 
BRANCH   8   9
ATOM      9  CG  TRP A   1      30.269  38.843  32.777  0.00  0.00    -0.002 A 
ATOM     10  CD1 TRP A   1      29.560  39.284  33.853  0.00  0.00    +0.068 A 
ATOM     11  NE1 TRP A   1      29.305  38.236  34.710  0.00  0.00    -0.352 N 
ATOM     12  HE1 TRP A   1      28.781  38.303  35.606  0.00  0.00    +0.166 HD
ATOM     13  CE2 TRP A   1      29.852  37.092  34.192  0.00  0.00    +0.056 A 
ATOM     14  CZ2 TRP A   1      29.857  35.790  34.693  0.00  0.00    +0.017 A 
ATOM     15  CH2 TRP A   1      30.492  34.826  33.955  0.00  0.00    +0.001 A 
ATOM     16  CZ3 TRP A   1      31.117  35.133  32.733  0.00  0.00    +0.000 A 
ATOM     17  CE3 TRP A   1      31.110  36.432  32.235  0.00  0.00    +0.001 A 
ATOM     18  CD2 TRP A   1      30.467  37.435  32.974  0.00  0.00    +0.013 A 
ENDBRANCH   8   9
ENDBRANCH   5   8
ENDBRANCH   1   5
BRANCH   2  19
ATOM     19  CA  TYR A   2      26.510  39.451  31.097  0.00  0.00    +0.141 C 
BRANCH  19  20
ATOM     20  C   TYR A   2      25.932  40.503  32.034  0.00  0.00    +0.227 C 
ATOM     21  O   TYR A   2      26.682  41.110  32.804  0.00  0.00    -0.286 OA
ENDBRANCH  19  20
BRANCH  19  22
ATOM     22  CB  TYR A   2      26.033  38.089  31.618  0.00  0.00    +0.054 C 
BRANCH  22  23
ATOM     23  CG  TYR A   2      26.523  36.915  30.825  0.00  0.00    -0.020 A 
ATOM     24  CD2 TYR A   2      27.651  36.212  31.216  0.00  0.00    -0.001 A 
ATOM     25  CE2 TYR A   2      28.126  35.146  30.462  0.00  0.00    +0.036 A 
ATOM     26  CZ  TYR A   2      27.466  34.779  29.310  0.00  0.00    +0.134 A 
ATOM     27  CE1 TYR A   2      26.342  35.455  28.898  0.00  0.00    +0.036 A 
ATOM     28  CD1 TYR A   2      25.874  36.523  29.659  0.00  0.00    -0.001 A 
BRANCH  26  29
ATOM     29  OH  TYR A   2      27.928  33.734  28.563  0.00  0.00    -0.506 OA
ATOM     30  HH  TYR A   2      27.341  33.607  27.776  0.00  0.00    +0.292 HD
ENDBRANCH  26  29
ENDBRANCH  22  23
ENDBRANCH  19  22
ENDBRANCH   2  19
TORSDOF 9
REMARK  Name = ../refined-set-2016/1m4h/1m4h_pocket.pdb
REMARK  293 active torsions:
REMARK  status: ('A' for Active; 'I' for Inactive)
REMARK    1  A    between atoms: _1  and  _3
REMARK    2  A    between atoms: _3  and  _4
REMARK    3  A    between atoms: _3  and  _6
REMARK    4  A    between atoms: _6  and  _7
REMARK    5  A    between atoms: _7  and  _8
REMARK    6  A    between atoms: _8  and  _9
REMARK    7  A    between atoms: _9  and  _10
REMARK    8  A    between atoms: _14  and  _16
REMARK    9  A    between atoms: _16  and  _17
REMARK   10  A    between atoms: _16  and  _19
REMARK   11  A    between atoms: _19  and  _20
REMARK   12  A    between atoms: _22  and  _24
REMARK   13  A    between atoms: _24  and  _25
REMARK   14  A    between atoms: _27  and  _29
REMARK   15  A    between atoms: _29  and  _30
REMARK   16  A    between atoms: _29  and  _32
REMARK   17  A    between atoms: _32  and  _33
REMARK   18  A    between atoms: _33  and  _34
REMARK   19  A    between atoms: _39  and  _41
REMARK   20  A    between atoms: _41  and  _42
REMARK   21  A    between atoms: _44  and  _46
REMARK   22  A    between atoms: _46  and  _47
REMARK   23  A    between atoms: _46  and  _49
REMARK   24  A    between atoms: _49  and  _50
REMARK   25  A    between atoms: _55  and  _56
REMARK   26  A    between atoms: _58  and  _60
REMARK   27  A    between atoms: _60  and  _61
REMARK   28  A    between atoms: _60  and  _63
REMARK   29  A    between atoms: _63  and  _64
REMARK   30  A    between atoms: _67  and  _69
REMARK   31  A    between atoms: _69  and  _70
REMARK   32  A    between atoms: _69  and  _72
REMARK   33  A    between atoms: _75  and  _77
REMARK   34  A    between atoms: _77  and  _78
REMARK   35  A    between atoms: _77  and  _80
REMARK   36  A    between atoms: _80  and  _81
REMARK   37  A    between atoms: _84  and  _86
REMARK   38  A    between atoms: _86  and  _87
REMARK   39  A    between atoms: _86  and  _89
REMARK   40  A    between atoms: _89  and  _90
REMARK   41  A    between atoms: _93  and  _95
REMARK   42  A    between atoms: _95  and  _96
REMARK   43  A    between atoms: _98  and  _100
REMARK   44  A    between atoms: _100  and  _101
REMARK   45  A    between atoms: _100  and  _103
REMARK   46  A    between atoms: _103  and  _104
REMARK   47  A    between atoms: _106  and  _108
REMARK   48  A    between atoms: _108  and  _109
REMARK   49  A    between atoms: _108  and  _111
REMARK   50  A    between atoms: _111  and  _112
REMARK   51  A    between atoms: _114  and  _116
REMARK   52  A    between atoms: _116  and  _117
REMARK   53  A    between atoms: _116  and  _119
REMARK   54  A    between atoms: _119  and  _120
REMARK   55  A    between atoms: _125  and  _127
REMARK   56  A    between atoms: _127  and  _128
REMARK   57  A    between atoms: _127  and  _130
REMARK   58  A    between atoms: _130  and  _131
REMARK   59  A    between atoms: _136  and  _137
REMARK   60  A    between atoms: _139  and  _141
REMARK   61  A    between atoms: _141  and  _142
REMARK   62  A    between atoms: _141  and  _144
REMARK   63  A    between atoms: _148  and  _149
REMARK   64  A    between atoms: _154  and  _156
REMARK   65  A    between atoms: _156  and  _157
REMARK   66  A    between atoms: _156  and  _159
REMARK   67  A    between atoms: _159  and  _160
REMARK   68  A    between atoms: _165  and  _166
REMARK   69  A    between atoms: _168  and  _170
REMARK   70  A    between atoms: _170  and  _171
REMARK   71  A    between atoms: _170  and  _173
REMARK   72  A    between atoms: _173  and  _174
REMARK   73  A    between atoms: _177  and  _179
REMARK   74  A    between atoms: _179  and  _180
REMARK   75  A    between atoms: _179  and  _182
REMARK   76  A    between atoms: _182  and  _183
REMARK   77  A    between atoms: _183  and  _184
REMARK   78  A    between atoms: _189  and  _191
REMARK   79  A    between atoms: _191  and  _192
REMARK   80  A    between atoms: _194  and  _196
REMARK   81  A    between atoms: _196  and  _197
REMARK   82  A    between atoms: _196  and  _199
REMARK   83  A    between atoms: _199  and  _200
REMARK   84  A    between atoms: _200  and  _201
REMARK   85  A    between atoms: _201  and  _202
REMARK   86  A    between atoms: _202  and  _203
REMARK   87  A    between atoms: _207  and  _209
REMARK   88  A    between atoms: _209  and  _210
REMARK   89  A    between atoms: _209  and  _212
REMARK   90  A    between atoms: _212  and  _213
REMARK   91  A    between atoms: _223  and  _225
REMARK   92  A    between atoms: _225  and  _226
REMARK   93  A    between atoms: _225  and  _228
REMARK   94  A    between atoms: _228  and  _229
REMARK   95  A    between atoms: _232  and  _234
REMARK   96  A    between atoms: _234  and  _235
REMARK   97  A    between atoms: _234  and  _237
REMARK   98  A    between atoms: _237  and  _238
REMARK   99  A    between atoms: _238  and  _239
REMARK  100  A    between atoms: _239  and  _240
REMARK  101  A    between atoms: _240  and  _241
REMARK  102  A    between atoms: _245  and  _247
REMARK  103  A    between atoms: _247  and  _248
REMARK  104  A    between atoms: _247  and  _250
REMARK  105  A    between atoms: _250  and  _251
REMARK  106  A    between atoms: _257  and  _259
REMARK  107  A    between atoms: _259  and  _260
REMARK  108  A    between atoms: _259  and  _262
REMARK  109  A    between atoms: _262  and  _263
REMARK  110  A    between atoms: _269  and  _271
REMARK  111  A    between atoms: _271  and  _272
REMARK  112  A    between atoms: _271  and  _274
REMARK  113  A    between atoms: _274  and  _275
REMARK  114  A    between atoms: _278  and  _280
REMARK  115  A    between atoms: _280  and  _281
REMARK  116  A    between atoms: _280  and  _283
REMARK  117  A    between atoms: _283  and  _284
REMARK  118  A    between atoms: _286  and  _288
REMARK  119  A    between atoms: _288  and  _289
REMARK  120  A    between atoms: _288  and  _291
REMARK  121  A    between atoms: _291  and  _292
REMARK  122  A    between atoms: _302  and  _304
REMARK  123  A    between atoms: _304  and  _305
REMARK  124  A    between atoms: _307  and  _309
REMARK  125  A    between atoms: _309  and  _310
REMARK  126  A    between atoms: _309  and  _312
REMARK  127  A    between atoms: _312  and  _313
REMARK  128  A    between atoms: _316  and  _318
REMARK  129  A    between atoms: _318  and  _319
REMARK  130  A    between atoms: _318  and  _321
REMARK  131  A    between atoms: _321  and  _322
REMARK  132  A    between atoms: _325  and  _327
REMARK  133  A    between atoms: _327  and  _328
REMARK  134  A    between atoms: _327  and  _330
REMARK  135  A    between atoms: _330  and  _331
REMARK  136  A    between atoms: _334  and  _336
REMARK  137  A    between atoms: _336  and  _337
REMARK  138  A    between atoms: _340  and  _342
REMARK  139  A    between atoms: _342  and  _343
REMARK  140  A    between atoms: _342  and  _345
REMARK  141  A    between atoms: _345  and  _346
REMARK  142  A    between atoms: _351  and  _352
REMARK  143  A    between atoms: _354  and  _356
REMARK  144  A    between atoms: _356  and  _357
REMARK  145  A    between atoms: _360  and  _362
REMARK  146  A    between atoms: _362  and  _363
REMARK  147  A    between atoms: _362  and  _365
REMARK  148  A    between atoms: _365  and  _366
REMARK  149  A    between atoms: _366  and  _367
REMARK  150  A    between atoms: _370  and  _372
REMARK  151  A    between atoms: _372  and  _373
REMARK  152  A    between atoms: _372  and  _375
REMARK  153  A    between atoms: _375  and  _376
REMARK  154  A    between atoms: _379  and  _381
REMARK  155  A    between atoms: _381  and  _382
REMARK  156  A    between atoms: _385  and  _387
REMARK  157  A    between atoms: _387  and  _388
REMARK  158  A    between atoms: _387  and  _390
REMARK  159  A    between atoms: _390  and  _391
REMARK  160  A    between atoms: _391  and  _392
REMARK  161  A    between atoms: _392  and  _393
REMARK  162  A    between atoms: _403  and  _404
REMARK  163  A    between atoms: _409  and  _411
REMARK  164  A    between atoms: _411  and  _412
REMARK  165  A    between atoms: _411  and  _414
REMARK  166  A    between atoms: _414  and  _415
REMARK  167  A    between atoms: _418  and  _420
REMARK  168  A    between atoms: _420  and  _421
REMARK  169  A    between atoms: _420  and  _423
REMARK  170  A    between atoms: _423  and  _424
REMARK  171  A    between atoms: _427  and  _429
REMARK  172  A    between atoms: _429  and  _430
REMARK  173  A    between atoms: _429  and  _432
REMARK  174  A    between atoms: _432  and  _433
REMARK  175  A    between atoms: _433  and  _434
REMARK  176  A    between atoms: _434  and  _435
REMARK  177  A    between atoms: _444  and  _446
REMARK  178  A    between atoms: _446  and  _447
REMARK  179  A    between atoms: _446  and  _449
REMARK  180  A    between atoms: _449  and  _450
REMARK  181  A    between atoms: _460  and  _462
REMARK  182  A    between atoms: _462  and  _463
REMARK  183  A    between atoms: _462  and  _465
REMARK  184  A    between atoms: _465  and  _466
REMARK  185  A    between atoms: _471  and  _472
REMARK  186  A    between atoms: _474  and  _476
REMARK  187  A    between atoms: _476  and  _477
REMARK  188  A    between atoms: _476  and  _479
REMARK  189  A    between atoms: _479  and  _480
REMARK  190  A    between atoms: _480  and  _481
REMARK  191  A    between atoms: _481  and  _482
REMARK  192  A    between atoms: _482  and  _483
REMARK  193  A    between atoms: _487  and  _489
REMARK  194  A    between atoms: _489  and  _490
REMARK  195  A    between atoms: _489  and  _492
REMARK  196  A    between atoms: _492  and  _493
REMARK  197  A    between atoms: _496  and  _498
REMARK  198  A    between atoms: _498  and  _499
REMARK  199  A    between atoms: _498  and  _501
REMARK  200  A    between atoms: _504  and  _506
REMARK  201  A    between atoms: _506  and  _507
REMARK  202  A    between atoms: _506  and  _509
REMARK  203  A    between atoms: _509  and  _510
REMARK  204  A    between atoms: _513  and  _515
REMARK  205  A    between atoms: _515  and  _516
REMARK  206  A    between atoms: _515  and  _518
REMARK  207  A    between atoms: _518  and  _519
REMARK  208  A    between atoms: _521  and  _523
REMARK  209  A    between atoms: _523  and  _524
REMARK  210  A    between atoms: _526  and  _528
REMARK  211  A    between atoms: _528  and  _529
REMARK  212  A    between atoms: _528  and  _531
REMARK  213  A    between atoms: _531  and  _532
REMARK  214  A    between atoms: _535  and  _537
REMARK  215  A    between atoms: _537  and  _538
REMARK  216  A    between atoms: _537  and  _540
REMARK  217  A    between atoms: _540  and  _541
REMARK  218  A    between atoms: _544  and  _546
REMARK  219  A    between atoms: _546  and  _547
REMARK  220  A    between atoms: _546  and  _549
REMARK  221  A    between atoms: _549  and  _550
REMARK  222  A    between atoms: _555  and  _557
REMARK  223  A    between atoms: _557  and  _558
REMARK  224  A    between atoms: _557  and  _560
REMARK  225  A    between atoms: _560  and  _561
REMARK  226  A    between atoms: _564  and  _566
REMARK  227  A    between atoms: _566  and  _567
REMARK  228  A    between atoms: _566  and  _569
REMARK  229  A    between atoms: _569  and  _570
REMARK  230  A    between atoms: _570  and  _571
REMARK  231  A    between atoms: _571  and  _572
REMARK  232  A    between atoms: _581  and  _583
REMARK  233  A    between atoms: _583  and  _584
REMARK  234  A    between atoms: _586  and  _588
REMARK  235  A    between atoms: _588  and  _589
REMARK  236  A    between atoms: _588  and  _591
REMARK  237  A    between atoms: _591  and  _592
REMARK  238  A    between atoms: _592  and  _593
REMARK  239  A    between atoms: _596  and  _598
REMARK  240  A    between atoms: _598  and  _599
REMARK  241  A    between atoms: _598  and  _601
REMARK  242  A    between atoms: _601  and  _602
REMARK  243  A    between atoms: _602  and  _603
REMARK  244  A    between atoms: _603  and  _604
REMARK  245  A    between atoms: _614  and  _615
REMARK  246  A    between atoms: _620  and  _622
REMARK  247  A    between atoms: _622  and  _623
REMARK  248  A    between atoms: _622  and  _625
REMARK  249  A    between atoms: _628  and  _630
REMARK  250  A    between atoms: _630  and  _631
REMARK  251  A    between atoms: _630  and  _633
REMARK  252  A    between atoms: _633  and  _634
REMARK  253  A    between atoms: _634  and  _635
REMARK  254  A    between atoms: _638  and  _640
REMARK  255  A    between atoms: _640  and  _641
REMARK  256  A    between atoms: _640  and  _643
REMARK  257  A    between atoms: _643  and  _644
REMARK  258  A    between atoms: _644  and  _645
REMARK  259  A    between atoms: _645  and  _646
REMARK  260  A    between atoms: _646  and  _647
REMARK  261  A    between atoms: _651  and  _653
REMARK  262  A    between atoms: _653  and  _654
REMARK  263  A    between atoms: _657  and  _659
REMARK  264  A    between atoms: _659  and  _660
REMARK  265  A    between atoms: _659  and  _662
REMARK  266  A    between atoms: _662  and  _663
REMARK  267  A    between atoms: _665  and  _667
REMARK  268  A    between atoms: _667  and  _668
REMARK  269  A    between atoms: _667  and  _670
REMARK  270  A    between atoms: _670  and  _671
REMARK  271  A    between atoms: _671  and  _672
REMARK  272  A    between atoms: _677  and  _679
REMARK  273  A    between atoms: _679  and  _680
REMARK  274  A    between atoms: _679  and  _682
REMARK  275  A    between atoms: _682  and  _683
REMARK  276  A    between atoms: _685  and  _687
REMARK  277  A    between atoms: _687  and  _688
REMARK  278  A    between atoms: _687  and  _690
REMARK  279  A    between atoms: _690  and  _691
REMARK  280  A    between atoms: _694  and  _696
REMARK  281  A    between atoms: _696  and  _697
REMARK  282  A    between atoms: _696  and  _699
REMARK  283  A    between atoms: _699  and  _700
REMARK  284  A    between atoms: _703  and  _705
REMARK  285  A    between atoms: _705  and  _706
REMARK  286  A    between atoms: _705  and  _708
REMARK  287  A    between atoms: _711  and  _713
REMARK  288  A    between atoms: _713  and  _714
REMARK  289  A    between atoms: _716  and  _718
REMARK  290  A    between atoms: _718  and  _719
REMARK  291  A    between atoms: _722  and  _724
REMARK  292  A    between atoms: _724  and  _725
REMARK  293  A    between atoms: _724  and  _727
REMARK                            x       y       z     vdW  Elec       q    Type
REMARK                         _______ _______ _______ _____ _____    ______ ____
ROOT
ATOM      1  CG  LYS A   1      25.879  32.875  35.172  0.00  0.00    -0.000 C 
ENDROOT
BRANCH   1   2
ATOM      2  CB  LYS A   1      26.325  33.568  36.480  0.00  0.00    +0.025 C 
BRANCH   2   3
ATOM      3  CA  LYS A   1      25.623  33.008  37.722  0.00  0.00    +0.133 C 
BRANCH   3   4
ATOM      4  N   LYS A   1      25.915  31.575  37.842  0.00  0.00    -0.239 NA
ATOM      5  H   LYS A   1      25.142  30.900  37.673  0.00  0.00    +0.142 HD
ENDBRANCH   3   4
BRANCH   3   6
ATOM      6  C   LYS A   1      24.112  33.208  37.539  0.00  0.00    +0.224 C 
ATOM      7  O   LYS A   1      23.368  32.247  37.337  0.00  0.00    -0.287 OA
ENDBRANCH   3   6
ENDBRANCH   2   3
ENDBRANCH   1   2
BRANCH   1   8
ATOM      8  CD  LYS A   1      26.497  33.507  33.925  0.00  0.00    -0.024 C 
BRANCH   8   9
ATOM      9  CE  LYS A   1      26.549  32.510  32.774  0.00  0.00    -0.086 C 
BRANCH   9  10
ATOM     10  NZ  LYS A   1      27.503  31.408  33.118  0.00  0.00    +0.380 N 
ATOM     11  HZ1 LYS A   1      27.179  30.928  33.982  0.00  0.00    -0.089 HD
ATOM     12  HZ2 LYS A   1      28.450  31.808  33.277  0.00  0.00    -0.089 HD
ATOM     13  HZ3 LYS A   1      27.540  30.726  32.334  0.00  0.00    -0.089 HD
ENDBRANCH   9  10
ENDBRANCH   8   9
ENDBRANCH   1   8
TORSDOF 7
REMARK  Name = ../refined-set-2016/1m4h/1m4h_pocket.pdb
REMARK  293 active torsions:
REMARK  status: ('A' for Active; 'I' for Inactive)
REMARK    1  A    between atoms: _1  and  _3
REMARK    2  A    between atoms: _3  and  _4
REMARK    3  A    between atoms: _3  and  _6
REMARK    4  A    between atoms: _6  and  _7
REMARK    5  A    between atoms: _7  and  _8
REMARK    6  A    between atoms: _8  and  _9
REMARK    7  A    between atoms: _9  and  _10
REMARK    8  A    between atoms: _14  and  _16
REMARK    9  A    between atoms: _16  and  _17
REMARK   10  A    between atoms: _16  and  _19
REMARK   11  A    between atoms: _19  and  _20
REMARK   12  A    between atoms: _22  and  _24
REMARK   13  A    between atoms: _24  and  _25
REMARK   14  A    between atoms: _27  and  _29
REMARK   15  A    between atoms: _29  and  _30
REMARK   16  A    between atoms: _29  and  _32
REMARK   17  A    between atoms: _32  and  _33
REMARK   18  A    between atoms: _33  and  _34
REMARK   19  A    between atoms: _39  and  _41
REMARK   20  A    between atoms: _41  and  _42
REMARK   21  A    between atoms: _44  and  _46
REMARK   22  A    between atoms: _46  and  _47
REMARK   23  A    between atoms: _46  and  _49
REMARK   24  A    between atoms: _49  and  _50
REMARK   25  A    between atoms: _55  and  _56
REMARK   26  A    between atoms: _58  and  _60
REMARK   27  A    between atoms: _60  and  _61
REMARK   28  A    between atoms: _60  and  _63
REMARK   29  A    between atoms: _63  and  _64
REMARK   30  A    between atoms: _67  and  _69
REMARK   31  A    between atoms: _69  and  _70
REMARK   32  A    between atoms: _69  and  _72
REMARK   33  A    between atoms: _75  and  _77
REMARK   34  A    between atoms: _77  and  _78
REMARK   35  A    between atoms: _77  and  _80
REMARK   36  A    between atoms: _80  and  _81
REMARK   37  A    between atoms: _84  and  _86
REMARK   38  A    between atoms: _86  and  _87
REMARK   39  A    between atoms: _86  and  _89
REMARK   40  A    between atoms: _89  and  _90
REMARK   41  A    between atoms: _93  and  _95
REMARK   42  A    between atoms: _95  and  _96
REMARK   43  A    between atoms: _98  and  _100
REMARK   44  A    between atoms: _100  and  _101
REMARK   45  A    between atoms: _100  and  _103
REMARK   46  A    between atoms: _103  and  _104
REMARK   47  A    between atoms: _106  and  _108
REMARK   48  A    between atoms: _108  and  _109
REMARK   49  A    between atoms: _108  and  _111
REMARK   50  A    between atoms: _111  and  _112
REMARK   51  A    between atoms: _114  and  _116
REMARK   52  A    between atoms: _116  and  _117
REMARK   53  A    between atoms: _116  and  _119
REMARK   54  A    between atoms: _119  and  _120
REMARK   55  A    between atoms: _125  and  _127
REMARK   56  A    between atoms: _127  and  _128
REMARK   57  A    between atoms: _127  and  _130
REMARK   58  A    between atoms: _130  and  _131
REMARK   59  A    between atoms: _136  and  _137
REMARK   60  A    between atoms: _139  and  _141
REMARK   61  A    between atoms: _141  and  _142
REMARK   62  A    between atoms: _141  and  _144
REMARK   63  A    between atoms: _148  and  _149
REMARK   64  A    between atoms: _154  and  _156
REMARK   65  A    between atoms: _156  and  _157
REMARK   66  A    between atoms: _156  and  _159
REMARK   67  A    between atoms: _159  and  _160
REMARK   68  A    between atoms: _165  and  _166
REMARK   69  A    between atoms: _168  and  _170
REMARK   70  A    between atoms: _170  and  _171
REMARK   71  A    between atoms: _170  and  _173
REMARK   72  A    between atoms: _173  and  _174
REMARK   73  A    between atoms: _177  and  _179
REMARK   74  A    between atoms: _179  and  _180
REMARK   75  A    between atoms: _179  and  _182
REMARK   76  A    between atoms: _182  and  _183
REMARK   77  A    between atoms: _183  and  _184
REMARK   78  A    between atoms: _189  and  _191
REMARK   79  A    between atoms: _191  and  _192
REMARK   80  A    between atoms: _194  and  _196
REMARK   81  A    between atoms: _196  and  _197
REMARK   82  A    between atoms: _196  and  _199
REMARK   83  A    between atoms: _199  and  _200
REMARK   84  A    between atoms: _200  and  _201
REMARK   85  A    between atoms: _201  and  _202
REMARK   86  A    between atoms: _202  and  _203
REMARK   87  A    between atoms: _207  and  _209
REMARK   88  A    between atoms: _209  and  _210
REMARK   89  A    between atoms: _209  and  _212
REMARK   90  A    between atoms: _212  and  _213
REMARK   91  A    between atoms: _223  and  _225
REMARK   92  A    between atoms: _225  and  _226
REMARK   93  A    between atoms: _225  and  _228
REMARK   94  A    between atoms: _228  and  _229
REMARK   95  A    between atoms: _232  and  _234
REMARK   96  A    between atoms: _234  and  _235
REMARK   97  A    between atoms: _234  and  _237
REMARK   98  A    between atoms: _237  and  _238
REMARK   99  A    between atoms: _238  and  _239
REMARK  100  A    between atoms: _239  and  _240
REMARK  101  A    between atoms: _240  and  _241
REMARK  102  A    between atoms: _245  and  _247
REMARK  103  A    between atoms: _247  and  _248
REMARK  104  A    between atoms: _247  and  _250
REMARK  105  A    between atoms: _250  and  _251
REMARK  106  A    between atoms: _257  and  _259
REMARK  107  A    between atoms: _259  and  _260
REMARK  108  A    between atoms: _259  and  _262
REMARK  109  A    between atoms: _262  and  _263
REMARK  110  A    between atoms: _269  and  _271
REMARK  111  A    between atoms: _271  and  _272
REMARK  112  A    between atoms: _271  and  _274
REMARK  113  A    between atoms: _274  and  _275
REMARK  114  A    between atoms: _278  and  _280
REMARK  115  A    between atoms: _280  and  _281
REMARK  116  A    between atoms: _280  and  _283
REMARK  117  A    between atoms: _283  and  _284
REMARK  118  A    between atoms: _286  and  _288
REMARK  119  A    between atoms: _288  and  _289
REMARK  120  A    between atoms: _288  and  _291
REMARK  121  A    between atoms: _291  and  _292
REMARK  122  A    between atoms: _302  and  _304
REMARK  123  A    between atoms: _304  and  _305
REMARK  124  A    between atoms: _307  and  _309
REMARK  125  A    between atoms: _309  and  _310
REMARK  126  A    between atoms: _309  and  _312
REMARK  127  A    between atoms: _312  and  _313
REMARK  128  A    between atoms: _316  and  _318
REMARK  129  A    between atoms: _318  and  _319
REMARK  130  A    between atoms: _318  and  _321
REMARK  131  A    between atoms: _321  and  _322
REMARK  132  A    between atoms: _325  and  _327
REMARK  133  A    between atoms: _327  and  _328
REMARK  134  A    between atoms: _327  and  _330
REMARK  135  A    between atoms: _330  and  _331
REMARK  136  A    between atoms: _334  and  _336
REMARK  137  A    between atoms: _336  and  _337
REMARK  138  A    between atoms: _340  and  _342
REMARK  139  A    between atoms: _342  and  _343
REMARK  140  A    between atoms: _342  and  _345
REMARK  141  A    between atoms: _345  and  _346
REMARK  142  A    between atoms: _351  and  _352
REMARK  143  A    between atoms: _354  and  _356
REMARK  144  A    between atoms: _356  and  _357
REMARK  145  A    between atoms: _360  and  _362
REMARK  146  A    between atoms: _362  and  _363
REMARK  147  A    between atoms: _362  and  _365
REMARK  148  A    between atoms: _365  and  _366
REMARK  149  A    between atoms: _366  and  _367
REMARK  150  A    between atoms: _370  and  _372
REMARK  151  A    between atoms: _372  and  _373
REMARK  152  A    between atoms: _372  and  _375
REMARK  153  A    between atoms: _375  and  _376
REMARK  154  A    between atoms: _379  and  _381
REMARK  155  A    between atoms: _381  and  _382
REMARK  156  A    between atoms: _385  and  _387
REMARK  157  A    between atoms: _387  and  _388
REMARK  158  A    between atoms: _387  and  _390
REMARK  159  A    between atoms: _390  and  _391
REMARK  160  A    between atoms: _391  and  _392
REMARK  161  A    between atoms: _392  and  _393
REMARK  162  A    between atoms: _403  and  _404
REMARK  163  A    between atoms: _409  and  _411
REMARK  164  A    between atoms: _411  and  _412
REMARK  165  A    between atoms: _411  and  _414
REMARK  166  A    between atoms: _414  and  _415
REMARK  167  A    between atoms: _418  and  _420
REMARK  168  A    between atoms: _420  and  _421
REMARK  169  A    between atoms: _420  and  _423
REMARK  170  A    between atoms: _423  and  _424
REMARK  171  A    between atoms: _427  and  _429
REMARK  172  A    between atoms: _429  and  _430
REMARK  173  A    between atoms: _429  and  _432
REMARK  174  A    between atoms: _432  and  _433
REMARK  175  A    between atoms: _433  and  _434
REMARK  176  A    between atoms: _434  and  _435
REMARK  177  A    between atoms: _444  and  _446
REMARK  178  A    between atoms: _446  and  _447
REMARK  179  A    between atoms: _446  and  _449
REMARK  180  A    between atoms: _449  and  _450
REMARK  181  A    between atoms: _460  and  _462
REMARK  182  A    between atoms: _462  and  _463
REMARK  183  A    between atoms: _462  and  _465
REMARK  184  A    between atoms: _465  and  _466
REMARK  185  A    between atoms: _471  and  _472
REMARK  186  A    between atoms: _474  and  _476
REMARK  187  A    between atoms: _476  and  _477
REMARK  188  A    between atoms: _476  and  _479
REMARK  189  A    between atoms: _479  and  _480
REMARK  190  A    between atoms: _480  and  _481
REMARK  191  A    between atoms: _481  and  _482
REMARK  192  A    between atoms: _482  and  _483
REMARK  193  A    between atoms: _487  and  _489
REMARK  194  A    between atoms: _489  and  _490
REMARK  195  A    between atoms: _489  and  _492
REMARK  196  A    between atoms: _492  and  _493
REMARK  197  A    between atoms: _496  and  _498
REMARK  198  A    between atoms: _498  and  _499
REMARK  199  A    between atoms: _498  and  _501
REMARK  200  A    between atoms: _504  and  _506
REMARK  201  A    between atoms: _506  and  _507
REMARK  202  A    between atoms: _506  and  _509
REMARK  203  A    between atoms: _509  and  _510
REMARK  204  A    between atoms: _513  and  _515
REMARK  205  A    between atoms: _515  and  _516
REMARK  206  A    between atoms: _515  and  _518
REMARK  207  A    between atoms: _518  and  _519
REMARK  208  A    between atoms: _521  and  _523
REMARK  209  A    between atoms: _523  and  _524
REMARK  210  A    between atoms: _526  and  _528
REMARK  211  A    between atoms: _528  and  _529
REMARK  212  A    between atoms: _528  and  _531
REMARK  213  A    between atoms: _531  and  _532
REMARK  214  A    between atoms: _535  and  _537
REMARK  215  A    between atoms: _537  and  _538
REMARK  216  A    between atoms: _537  and  _540
REMARK  217  A    between atoms: _540  and  _541
REMARK  218  A    between atoms: _544  and  _546
REMARK  219  A    between atoms: _546  and  _547
REMARK  220  A    between atoms: _546  and  _549
REMARK  221  A    between atoms: _549  and  _550
REMARK  222  A    between atoms: _555  and  _557
REMARK  223  A    between atoms: _557  and  _558
REMARK  224  A    between atoms: _557  and  _560
REMARK  225  A    between atoms: _560  and  _561
REMARK  226  A    between atoms: _564  and  _566
REMARK  227  A    between atoms: _566  and  _567
REMARK  228  A    between atoms: _566  and  _569
REMARK  229  A    between atoms: _569  and  _570
REMARK  230  A    between atoms: _570  and  _571
REMARK  231  A    between atoms: _571  and  _572
REMARK  232  A    between atoms: _581  and  _583
REMARK  233  A    between atoms: _583  and  _584
REMARK  234  A    between atoms: _586  and  _588
REMARK  235  A    between atoms: _588  and  _589
REMARK  236  A    between atoms: _588  and  _591
REMARK  237  A    between atoms: _591  and  _592
REMARK  238  A    between atoms: _592  and  _593
REMARK  239  A    between atoms: _596  and  _598
REMARK  240  A    between atoms: _598  and  _599
REMARK  241  A    between atoms: _598  and  _601
REMARK  242  A    between atoms: _601  and  _602
REMARK  243  A    between atoms: _602  and  _603
REMARK  244  A    between atoms: _603  and  _604
REMARK  245  A    between atoms: _614  and  _615
REMARK  246  A    between atoms: _620  and  _622
REMARK  247  A    between atoms: _622  and  _623
REMARK  248  A    between atoms: _622  and  _625
REMARK  249  A    between atoms: _628  and  _630
REMARK  250  A    between atoms: _630  and  _631
REMARK  251  A    between atoms: _630  and  _633
REMARK  252  A    between atoms: _633  and  _634
REMARK  253  A    between atoms: _634  and  _635
REMARK  254  A    between atoms: _638  and  _640
REMARK  255  A    between atoms: _640  and  _641
REMARK  256  A    between atoms: _640  and  _643
REMARK  257  A    between atoms: _643  and  _644
REMARK  258  A    between atoms: _644  and  _645
REMARK  259  A    between atoms: _645  and  _646
REMARK  260  A    between atoms: _646  and  _647
REMARK  261  A    between atoms: _651  and  _653
REMARK  262  A    between atoms: _653  and  _654
REMARK  263  A    between atoms: _657  and  _659
REMARK  264  A    between atoms: _659  and  _660
REMARK  265  A    between atoms: _659  and  _662
REMARK  266  A    between atoms: _662  and  _663
REMARK  267  A    between atoms: _665  and  _667
REMARK  268  A    between atoms: _667  and  _668
REMARK  269  A    between atoms: _667  and  _670
REMARK  270  A    between atoms: _670  and  _671
REMARK  271  A    between atoms: _671  and  _672
REMARK  272  A    between atoms: _677  and  _679
REMARK  273  A    between atoms: _679  and  _680
REMARK  274  A    between atoms: _679  and  _682
REMARK  275  A    between atoms: _682  and  _683
REMARK  276  A    between atoms: _685  and  _687
REMARK  277  A    between atoms: _687  and  _688
REMARK  278  A    between atoms: _687  and  _690
REMARK  279  A    between atoms: _690  and  _691
REMARK  280  A    between atoms: _694  and  _696
REMARK  281  A    between atoms: _696  and  _697
REMARK  282  A    between atoms: _696  and  _699
REMARK  283  A    between atoms: _699  and  _700
REMARK  284  A    between atoms: _703  and  _705
REMARK  285  A    between atoms: _705  and  _706
REMARK  286  A    between atoms: _705  and  _708
REMARK  287  A    between atoms: _711  and  _713
REMARK  288  A    between atoms: _713  and  _714
REMARK  289  A    between atoms: _716  and  _718
REMARK  290  A    between atoms: _718  and  _719
REMARK  291  A    between atoms: _722  and  _724
REMARK  292  A    between atoms: _724  and  _725
REMARK  293  A    between atoms: _724  and  _727
REMARK                            x       y       z     vdW  Elec       q    Type
REMARK                         _______ _______ _______ _____ _____    ______ ____
ROOT
ATOM      1  C   THR A   6      14.445  33.910  26.665  0.00  0.00    +0.243 C 
ATOM      2  O   THR A   6      13.968  34.856  27.302  0.00  0.00    -0.273 OA
ATOM      3  N   THR A   7      13.707  32.927  26.184  0.00  0.00    -0.295 N 
ATOM      4  H   THR A   7      14.150  32.155  25.645  0.00  0.00    +0.150 HD
ENDROOT
BRANCH   3   5
ATOM      5  CA  THR A   7      12.285  32.930  26.410  0.00  0.00    +0.176 C 
BRANCH   5   6
ATOM      6  C   THR A   7      11.916  32.689  27.863  0.00  0.00    +0.243 C 
ATOM      7  O   THR A   7      11.266  33.527  28.489  0.00  0.00    -0.273 OA
ATOM      8  N   ASN A   8      12.364  31.553  28.396  0.00  0.00    -0.297 N 
ATOM      9  H   ASN A   8      12.981  30.943  27.823  0.00  0.00    +0.150 HD
BRANCH   8  10
ATOM     10  CA  ASN A   8      12.025  31.129  29.750  0.00  0.00    +0.158 C 
BRANCH  10  11
ATOM     11  C   ASN A   8      12.786  31.687  30.912  0.00  0.00    +0.241 C 
ATOM     12  N   LEU A   9      12.236  31.400  32.091  0.00  0.00    -0.297 N 
ATOM     13  H   LEU A   9      11.308  30.931  32.115  0.00  0.00    +0.150 HD
ATOM     14  O   ASN A   8      13.825  32.339  30.764  0.00  0.00    -0.273 OA
BRANCH  12  15
ATOM     15  CA  LEU A   9      12.895  31.723  33.343  0.00  0.00    +0.149 C 
BRANCH  15  16
ATOM     16  C   LEU A   9      13.653  30.392  33.491  0.00  0.00    +0.241 C 
ATOM     17  O   LEU A   9      13.032  29.334  33.565  0.00  0.00    -0.273 OA
ATOM     18  N   ARG A  10      14.981  30.434  33.470  0.00  0.00    -0.298 N 
ATOM     19  H   ARG A  10      15.464  31.347  33.344  0.00  0.00    +0.150 HD
BRANCH  18  20
ATOM     20  CA  ARG A  10      15.769  29.220  33.621  0.00  0.00    +0.137 C 
BRANCH  20  21
ATOM     21  C   ARG A  10      16.462  29.191  34.992  0.00  0.00    +0.227 C 
ATOM     22  O   ARG A  10      17.023  30.198  35.439  0.00  0.00    -0.286 OA
ENDBRANCH  20  21
BRANCH  20  23
ATOM     23  CB  ARG A  10      16.784  29.143  32.483  0.00  0.00    +0.031 C 
BRANCH  23  24
ATOM     24  CG  ARG A  10      16.142  29.449  31.133  0.00  0.00    +0.045 C 
BRANCH  24  25
ATOM     25  CD  ARG A  10      16.877  28.780  30.008  0.00  0.00    +0.174 C 
BRANCH  25  26
ATOM     26  NE  ARG A  10      18.306  28.836  30.252  0.00  0.00    -0.265 N 
ATOM     27  HE  ARG A  10      18.695  29.692  30.696  0.00  0.00    +0.259 HD
ATOM     28  CZ  ARG A  10      19.142  27.858  29.941  0.00  0.00    +0.342 C 
ATOM     29  NH2 ARG A  10      20.432  27.993  30.211  0.00  0.00    -0.292 N 
ATOM     30 HH21 ARG A  10      20.780  28.862  30.664  0.00  0.00    +0.255 HD
ATOM     31 HH22 ARG A  10      21.096  27.230  29.970  0.00  0.00    +0.255 HD
ATOM     32  NH1 ARG A  10      18.682  26.751  29.361  0.00  0.00    -0.292 N 
ATOM     33 HH11 ARG A  10      17.667  26.656  29.153  0.00  0.00    +0.255 HD
ATOM     34 HH12 ARG A  10      19.337  25.982  29.116  0.00  0.00    +0.255 HD
ENDBRANCH  25  26
ENDBRANCH  24  25
ENDBRANCH  23  24
ENDBRANCH  20  23
ENDBRANCH  18  20
ENDBRANCH  15  16
BRANCH  15  35
ATOM     35  CB  LEU A   9      11.894  31.859  34.490  0.00  0.00    +0.029 C 
BRANCH  35  36
ATOM     36  CG  LEU A   9      12.385  32.458  35.809  0.00  0.00    +0.002 C 
ATOM     37  CD2 LEU A   9      11.699  31.741  36.966  0.00  0.00    +0.000 C 
ATOM     38  CD1 LEU A   9      13.891  32.354  35.939  0.00  0.00    +0.000 C 
ENDBRANCH  35  36
ENDBRANCH  15  35
ENDBRANCH  12  15
ENDBRANCH  10  11
BRANCH  10  39
ATOM     39  CB  ASN A   8      12.151  29.609  29.882  0.00  0.00    +0.114 C 
BRANCH  39  40
ATOM     40  CG  ASN A   8      11.230  28.850  28.955  0.00  0.00    +0.222 C 
ATOM     41  ND2 ASN A   8      11.489  27.558  28.802  0.00  0.00    -0.329 N 
ATOM     42 HD21 ASN A   8      12.298  27.128  29.295  0.00  0.00    +0.145 HD
ATOM     43 HD22 ASN A   8      10.883  26.975  28.189  0.00  0.00    +0.145 HD
ATOM     44  OD1 ASN A   8      10.292  29.407  28.399  0.00  0.00    -0.275 OA
ENDBRANCH  39  40
ENDBRANCH  10  39
ENDBRANCH   8  10
ENDBRANCH   5   6
BRANCH   5  45
ATOM     45  CB  THR A   7      11.594  31.874  25.542  0.00  0.00    +0.137 C 
ATOM     46  CG2 THR A   7      10.115  31.796  25.894  0.00  0.00    +0.034 C 
BRANCH  45  47
ATOM     47  OG1 THR A   7      11.751  32.228  24.152  0.00  0.00    -0.382 OA
ATOM     48  HG1 THR A   7      11.340  33.114  23.990  0.00  0.00    +0.210 HD
ENDBRANCH  45  47
ENDBRANCH   5  45
ENDBRANCH   3   5
BRANCH   1  49
ATOM     49  CA  THR A   6      15.925  33.845  26.365  0.00  0.00    +0.176 C 
BRANCH  49  51
ATOM     50  C   GLY A   5      16.576  35.404  24.643  0.00  0.00    +0.243 C 
ATOM     51  N   THR A   6      16.221  35.190  25.905  0.00  0.00    -0.295 N 
ATOM     52  H   THR A   6      16.155  35.990  26.567  0.00  0.00    +0.150 HD
ATOM     53  O   GLY A   5      16.812  34.486  23.854  0.00  0.00    -0.273 OA
BRANCH  50  54
ATOM     54  CA  GLY A   5      16.757  36.847  24.228  0.00  0.00    +0.176 C 
BRANCH  54  56
ATOM     55  C   SER A   4      15.630  38.410  25.686  0.00  0.00    +0.243 C 
ATOM     56  N   GLY A   5      16.749  37.794  25.334  0.00  0.00    -0.295 N 
ATOM     57  H   GLY A   5      17.629  37.989  25.852  0.00  0.00    +0.150 HD
ATOM     58  O   SER A   4      14.546  38.207  25.134  0.00  0.00    -0.273 OA
BRANCH  55  59
ATOM     59  CA  SER A   4      15.740  39.399  26.832  0.00  0.00    +0.178 C 
BRANCH  59  62
ATOM     60  C   ASP A   3      17.129  38.043  28.305  0.00  0.00    +0.241 C 
ATOM     61  O   ASP A   3      16.382  37.058  28.210  0.00  0.00    -0.273 OA
ATOM     62  N   SER A   4      16.920  39.182  27.657  0.00  0.00    -0.295 N 
ATOM     63  H   SER A   4      17.622  39.945  27.741  0.00  0.00    +0.150 HD
BRANCH  60  64
ATOM     64  CA  ASP A   3      18.409  38.002  29.136  0.00  0.00    +0.160 C 
BRANCH  64  67
ATOM     65  C   VAL A   2      19.079  38.943  31.267  0.00  0.00    +0.241 C 
ATOM     66  O   VAL A   2      20.012  39.570  30.733  0.00  0.00    -0.273 OA
ATOM     67  N   ASP A   3      18.245  38.168  30.578  0.00  0.00    -0.297 N 
ATOM     68  H   ASP A   3      17.471  37.677  31.070  0.00  0.00    +0.150 HD
BRANCH  65  69
ATOM     69  CA  VAL A   2      18.865  39.021  32.779  0.00  0.00    +0.148 C 
BRANCH  69  72
ATOM     70  C   ILE A   1      20.269  37.368  33.885  0.00  0.00    +0.238 C 
ATOM     71  O   ILE A   1      19.318  36.592  34.045  0.00  0.00    -0.274 OA
ATOM     72  N   VAL A   2      20.136  38.563  33.323  0.00  0.00    -0.297 N 
ATOM     73  H   VAL A   2      20.964  39.191  33.270  0.00  0.00    +0.150 HD
BRANCH  70  74
ATOM     74  CA  ILE A   1      21.686  37.011  34.351  0.00  0.00    +0.145 C 
BRANCH  74  75
ATOM     75  N   ILE A   1      21.694  35.932  35.321  0.00  0.00    -0.238 NA
ATOM     76  H   ILE A   1      21.194  35.046  35.103  0.00  0.00    +0.142 HD
ENDBRANCH  74  75
BRANCH  74  77
ATOM     77  CB  ILE A   1      22.529  36.622  33.102  0.00  0.00    +0.025 C 
ATOM     78  CG2 ILE A   1      23.908  36.170  33.524  0.00  0.00    +0.002 C 
BRANCH  77  79
ATOM     79  CG1 ILE A   1      21.839  35.491  32.340  0.00  0.00    +0.002 C 
ATOM     80  CD1 ILE A   1      22.515  35.116  31.039  0.00  0.00    +0.000 C 
ENDBRANCH  77  79
ENDBRANCH  74  77
ENDBRANCH  70  74
ENDBRANCH  69  72
BRANCH  69  81
ATOM     81  CB  VAL A   2      18.587  40.460  33.212  0.00  0.00    +0.027 C 
ATOM     82  CG2 VAL A   2      18.526  40.514  34.746  0.00  0.00    +0.002 C 
ATOM     83  CG1 VAL A   2      17.293  40.963  32.577  0.00  0.00    +0.002 C 
ENDBRANCH  69  81
ENDBRANCH  65  69
ENDBRANCH  64  67
BRANCH  64  84
ATOM     84  CB  ASP A   3      19.157  36.700  28.839  0.00  0.00    +0.143 C 
BRANCH  84  85
ATOM     85  CG  ASP A   3      19.340  36.472  27.358  0.00  0.00    +0.367 C 
ATOM     86  OD2 ASP A   3      19.569  35.305  26.957  0.00  0.00    -0.246 OA
ATOM     87  OD1 ASP A   3      19.251  37.470  26.598  0.00  0.00    -0.246 OA
ENDBRANCH  84  85
ENDBRANCH  64  84
ENDBRANCH  60  64
ENDBRANCH  59  62
BRANCH  59  88
ATOM     88  CB  SER A   4      15.763  40.827  26.275  0.00  0.00    +0.166 C 
BRANCH  88  89
ATOM     89  OG  SER A   4      17.025  41.133  25.708  0.00  0.00    -0.380 OA
ATOM     90  H   SER A   4      17.726  41.052  26.402  0.00  0.00    +0.211 HD
ENDBRANCH  88  89
ENDBRANCH  59  88
ENDBRANCH  55  59
ENDBRANCH  54  56
ENDBRANCH  50  54
ENDBRANCH  49  51
BRANCH  49  91
ATOM     91  CB  THR A   6      16.666  33.482  27.636  0.00  0.00    +0.137 C 
ATOM     92  CG2 THR A   6      16.048  32.221  28.281  0.00  0.00    +0.034 C 
BRANCH  91  93
ATOM     93  OG1 THR A   6      18.037  33.249  27.310  0.00  0.00    -0.382 OA
ATOM     94  HG1 THR A   6      18.425  34.069  26.914  0.00  0.00    +0.210 HD
ENDBRANCH  91  93
ENDBRANCH  49  91
ENDBRANCH   1  49
TORSDOF 39
REMARK  Name = ../refined-set-2016/1m4h/1m4h_pocket.pdb
REMARK  293 active torsions:
REMARK  status: ('A' for Active; 'I' for Inactive)
REMARK    1  A    between atoms: _1  and  _3
REMARK    2  A    between atoms: _3  and  _4
REMARK    3  A    between atoms: _3  and  _6
REMARK    4  A    between atoms: _6  and  _7
REMARK    5  A    between atoms: _7  and  _8
REMARK    6  A    between atoms: _8  and  _9
REMARK    7  A    between atoms: _9  and  _10
REMARK    8  A    between atoms: _14  and  _16
REMARK    9  A    between atoms: _16  and  _17
REMARK   10  A    between atoms: _16  and  _19
REMARK   11  A    between atoms: _19  and  _20
REMARK   12  A    between atoms: _22  and  _24
REMARK   13  A    between atoms: _24  and  _25
REMARK   14  A    between atoms: _27  and  _29
REMARK   15  A    between atoms: _29  and  _30
REMARK   16  A    between atoms: _29  and  _32
REMARK   17  A    between atoms: _32  and  _33
REMARK   18  A    between atoms: _33  and  _34
REMARK   19  A    between atoms: _39  and  _41
REMARK   20  A    between atoms: _41  and  _42
REMARK   21  A    between atoms: _44  and  _46
REMARK   22  A    between atoms: _46  and  _47
REMARK   23  A    between atoms: _46  and  _49
REMARK   24  A    between atoms: _49  and  _50
REMARK   25  A    between atoms: _55  and  _56
REMARK   26  A    between atoms: _58  and  _60
REMARK   27  A    between atoms: _60  and  _61
REMARK   28  A    between atoms: _60  and  _63
REMARK   29  A    between atoms: _63  and  _64
REMARK   30  A    between atoms: _67  and  _69
REMARK   31  A    between atoms: _69  and  _70
REMARK   32  A    between atoms: _69  and  _72
REMARK   33  A    between atoms: _75  and  _77
REMARK   34  A    between atoms: _77  and  _78
REMARK   35  A    between atoms: _77  and  _80
REMARK   36  A    between atoms: _80  and  _81
REMARK   37  A    between atoms: _84  and  _86
REMARK   38  A    between atoms: _86  and  _87
REMARK   39  A    between atoms: _86  and  _89
REMARK   40  A    between atoms: _89  and  _90
REMARK   41  A    between atoms: _93  and  _95
REMARK   42  A    between atoms: _95  and  _96
REMARK   43  A    between atoms: _98  and  _100
REMARK   44  A    between atoms: _100  and  _101
REMARK   45  A    between atoms: _100  and  _103
REMARK   46  A    between atoms: _103  and  _104
REMARK   47  A    between atoms: _106  and  _108
REMARK   48  A    between atoms: _108  and  _109
REMARK   49  A    between atoms: _108  and  _111
REMARK   50  A    between atoms: _111  and  _112
REMARK   51  A    between atoms: _114  and  _116
REMARK   52  A    between atoms: _116  and  _117
REMARK   53  A    between atoms: _116  and  _119
REMARK   54  A    between atoms: _119  and  _120
REMARK   55  A    between atoms: _125  and  _127
REMARK   56  A    between atoms: _127  and  _128
REMARK   57  A    between atoms: _127  and  _130
REMARK   58  A    between atoms: _130  and  _131
REMARK   59  A    between atoms: _136  and  _137
REMARK   60  A    between atoms: _139  and  _141
REMARK   61  A    between atoms: _141  and  _142
REMARK   62  A    between atoms: _141  and  _144
REMARK   63  A    between atoms: _148  and  _149
REMARK   64  A    between atoms: _154  and  _156
REMARK   65  A    between atoms: _156  and  _157
REMARK   66  A    between atoms: _156  and  _159
REMARK   67  A    between atoms: _159  and  _160
REMARK   68  A    between atoms: _165  and  _166
REMARK   69  A    between atoms: _168  and  _170
REMARK   70  A    between atoms: _170  and  _171
REMARK   71  A    between atoms: _170  and  _173
REMARK   72  A    between atoms: _173  and  _174
REMARK   73  A    between atoms: _177  and  _179
REMARK   74  A    between atoms: _179  and  _180
REMARK   75  A    between atoms: _179  and  _182
REMARK   76  A    between atoms: _182  and  _183
REMARK   77  A    between atoms: _183  and  _184
REMARK   78  A    between atoms: _189  and  _191
REMARK   79  A    between atoms: _191  and  _192
REMARK   80  A    between atoms: _194  and  _196
REMARK   81  A    between atoms: _196  and  _197
REMARK   82  A    between atoms: _196  and  _199
REMARK   83  A    between atoms: _199  and  _200
REMARK   84  A    between atoms: _200  and  _201
REMARK   85  A    between atoms: _201  and  _202
REMARK   86  A    between atoms: _202  and  _203
REMARK   87  A    between atoms: _207  and  _209
REMARK   88  A    between atoms: _209  and  _210
REMARK   89  A    between atoms: _209  and  _212
REMARK   90  A    between atoms: _212  and  _213
REMARK   91  A    between atoms: _223  and  _225
REMARK   92  A    between atoms: _225  and  _226
REMARK   93  A    between atoms: _225  and  _228
REMARK   94  A    between atoms: _228  and  _229
REMARK   95  A    between atoms: _232  and  _234
REMARK   96  A    between atoms: _234  and  _235
REMARK   97  A    between atoms: _234  and  _237
REMARK   98  A    between atoms: _237  and  _238
REMARK   99  A    between atoms: _238  and  _239
REMARK  100  A    between atoms: _239  and  _240
REMARK  101  A    between atoms: _240  and  _241
REMARK  102  A    between atoms: _245  and  _247
REMARK  103  A    between atoms: _247  and  _248
REMARK  104  A    between atoms: _247  and  _250
REMARK  105  A    between atoms: _250  and  _251
REMARK  106  A    between atoms: _257  and  _259
REMARK  107  A    between atoms: _259  and  _260
REMARK  108  A    between atoms: _259  and  _262
REMARK  109  A    between atoms: _262  and  _263
REMARK  110  A    between atoms: _269  and  _271
REMARK  111  A    between atoms: _271  and  _272
REMARK  112  A    between atoms: _271  and  _274
REMARK  113  A    between atoms: _274  and  _275
REMARK  114  A    between atoms: _278  and  _280
REMARK  115  A    between atoms: _280  and  _281
REMARK  116  A    between atoms: _280  and  _283
REMARK  117  A    between atoms: _283  and  _284
REMARK  118  A    between atoms: _286  and  _288
REMARK  119  A    between atoms: _288  and  _289
REMARK  120  A    between atoms: _288  and  _291
REMARK  121  A    between atoms: _291  and  _292
REMARK  122  A    between atoms: _302  and  _304
REMARK  123  A    between atoms: _304  and  _305
REMARK  124  A    between atoms: _307  and  _309
REMARK  125  A    between atoms: _309  and  _310
REMARK  126  A    between atoms: _309  and  _312
REMARK  127  A    between atoms: _312  and  _313
REMARK  128  A    between atoms: _316  and  _318
REMARK  129  A    between atoms: _318  and  _319
REMARK  130  A    between atoms: _318  and  _321
REMARK  131  A    between atoms: _321  and  _322
REMARK  132  A    between atoms: _325  and  _327
REMARK  133  A    between atoms: _327  and  _328
REMARK  134  A    between atoms: _327  and  _330
REMARK  135  A    between atoms: _330  and  _331
REMARK  136  A    between atoms: _334  and  _336
REMARK  137  A    between atoms: _336  and  _337
REMARK  138  A    between atoms: _340  and  _342
REMARK  139  A    between atoms: _342  and  _343
REMARK  140  A    between atoms: _342  and  _345
REMARK  141  A    between atoms: _345  and  _346
REMARK  142  A    between atoms: _351  and  _352
REMARK  143  A    between atoms: _354  and  _356
REMARK  144  A    between atoms: _356  and  _357
REMARK  145  A    between atoms: _360  and  _362
REMARK  146  A    between atoms: _362  and  _363
REMARK  147  A    between atoms: _362  and  _365
REMARK  148  A    between atoms: _365  and  _366
REMARK  149  A    between atoms: _366  and  _367
REMARK  150  A    between atoms: _370  and  _372
REMARK  151  A    between atoms: _372  and  _373
REMARK  152  A    between atoms: _372  and  _375
REMARK  153  A    between atoms: _375  and  _376
REMARK  154  A    between atoms: _379  and  _381
REMARK  155  A    between atoms: _381  and  _382
REMARK  156  A    between atoms: _385  and  _387
REMARK  157  A    between atoms: _387  and  _388
REMARK  158  A    between atoms: _387  and  _390
REMARK  159  A    between atoms: _390  and  _391
REMARK  160  A    between atoms: _391  and  _392
REMARK  161  A    between atoms: _392  and  _393
REMARK  162  A    between atoms: _403  and  _404
REMARK  163  A    between atoms: _409  and  _411
REMARK  164  A    between atoms: _411  and  _412
REMARK  165  A    between atoms: _411  and  _414
REMARK  166  A    between atoms: _414  and  _415
REMARK  167  A    between atoms: _418  and  _420
REMARK  168  A    between atoms: _420  and  _421
REMARK  169  A    between atoms: _420  and  _423
REMARK  170  A    between atoms: _423  and  _424
REMARK  171  A    between atoms: _427  and  _429
REMARK  172  A    between atoms: _429  and  _430
REMARK  173  A    between atoms: _429  and  _432
REMARK  174  A    between atoms: _432  and  _433
REMARK  175  A    between atoms: _433  and  _434
REMARK  176  A    between atoms: _434  and  _435
REMARK  177  A    between atoms: _444  and  _446
REMARK  178  A    between atoms: _446  and  _447
REMARK  179  A    between atoms: _446  and  _449
REMARK  180  A    between atoms: _449  and  _450
REMARK  181  A    between atoms: _460  and  _462
REMARK  182  A    between atoms: _462  and  _463
REMARK  183  A    between atoms: _462  and  _465
REMARK  184  A    between atoms: _465  and  _466
REMARK  185  A    between atoms: _471  and  _472
REMARK  186  A    between atoms: _474  and  _476
REMARK  187  A    between atoms: _476  and  _477
REMARK  188  A    between atoms: _476  and  _479
REMARK  189  A    between atoms: _479  and  _480
REMARK  190  A    between atoms: _480  and  _481
REMARK  191  A    between atoms: _481  and  _482
REMARK  192  A    between atoms: _482  and  _483
REMARK  193  A    between atoms: _487  and  _489
REMARK  194  A    between atoms: _489  and  _490
REMARK  195  A    between atoms: _489  and  _492
REMARK  196  A    between atoms: _492  and  _493
REMARK  197  A    between atoms: _496  and  _498
REMARK  198  A    between atoms: _498  and  _499
REMARK  199  A    between atoms: _498  and  _501
REMARK  200  A    between atoms: _504  and  _506
REMARK  201  A    between atoms: _506  and  _507
REMARK  202  A    between atoms: _506  and  _509
REMARK  203  A    between atoms: _509  and  _510
REMARK  204  A    between atoms: _513  and  _515
REMARK  205  A    between atoms: _515  and  _516
REMARK  206  A    between atoms: _515  and  _518
REMARK  207  A    between atoms: _518  and  _519
REMARK  208  A    between atoms: _521  and  _523
REMARK  209  A    between atoms: _523  and  _524
REMARK  210  A    between atoms: _526  and  _528
REMARK  211  A    between atoms: _528  and  _529
REMARK  212  A    between atoms: _528  and  _531
REMARK  213  A    between atoms: _531  and  _532
REMARK  214  A    between atoms: _535  and  _537
REMARK  215  A    between atoms: _537  and  _538
REMARK  216  A    between atoms: _537  and  _540
REMARK  217  A    between atoms: _540  and  _541
REMARK  218  A    between atoms: _544  and  _546
REMARK  219  A    between atoms: _546  and  _547
REMARK  220  A    between atoms: _546  and  _549
REMARK  221  A    between atoms: _549  and  _550
REMARK  222  A    between atoms: _555  and  _557
REMARK  223  A    between atoms: _557  and  _558
REMARK  224  A    between atoms: _557  and  _560
REMARK  225  A    between atoms: _560  and  _561
REMARK  226  A    between atoms: _564  and  _566
REMARK  227  A    between atoms: _566  and  _567
REMARK  228  A    between atoms: _566  and  _569
REMARK  229  A    between atoms: _569  and  _570
REMARK  230  A    between atoms: _570  and  _571
REMARK  231  A    between atoms: _571  and  _572
REMARK  232  A    between atoms: _581  and  _583
REMARK  233  A    between atoms: _583  and  _584
REMARK  234  A    between atoms: _586  and  _588
REMARK  235  A    between atoms: _588  and  _589
REMARK  236  A    between atoms: _588  and  _591
REMARK  237  A    between atoms: _591  and  _592
REMARK  238  A    between atoms: _592  and  _593
REMARK  239  A    between atoms: _596  and  _598
REMARK  240  A    between atoms: _598  and  _599
REMARK  241  A    between atoms: _598  and  _601
REMARK  242  A    between atoms: _601  and  _602
REMARK  243  A    between atoms: _602  and  _603
REMARK  244  A    between atoms: _603  and  _604
REMARK  245  A    between atoms: _614  and  _615
REMARK  246  A    between atoms: _620  and  _622
REMARK  247  A    between atoms: _622  and  _623
REMARK  248  A    between atoms: _622  and  _625
REMARK  249  A    between atoms: _628  and  _630
REMARK  250  A    between atoms: _630  and  _631
REMARK  251  A    between atoms: _630  and  _633
REMARK  252  A    between atoms: _633  and  _634
REMARK  253  A    between atoms: _634  and  _635
REMARK  254  A    between atoms: _638  and  _640
REMARK  255  A    between atoms: _640  and  _641
REMARK  256  A    between atoms: _640  and  _643
REMARK  257  A    between atoms: _643  and  _644
REMARK  258  A    between atoms: _644  and  _645
REMARK  259  A    between atoms: _645  and  _646
REMARK  260  A    between atoms: _646  and  _647
REMARK  261  A    between atoms: _651  and  _653
REMARK  262  A    between atoms: _653  and  _654
REMARK  263  A    between atoms: _657  and  _659
REMARK  264  A    between atoms: _659  and  _660
REMARK  265  A    between atoms: _659  and  _662
REMARK  266  A    between atoms: _662  and  _663
REMARK  267  A    between atoms: _665  and  _667
REMARK  268  A    between atoms: _667  and  _668
REMARK  269  A    between atoms: _667  and  _670
REMARK  270  A    between atoms: _670  and  _671
REMARK  271  A    between atoms: _671  and  _672
REMARK  272  A    between atoms: _677  and  _679
REMARK  273  A    between atoms: _679  and  _680
REMARK  274  A    between atoms: _679  and  _682
REMARK  275  A    between atoms: _682  and  _683
REMARK  276  A    between atoms: _685  and  _687
REMARK  277  A    between atoms: _687  and  _688
REMARK  278  A    between atoms: _687  and  _690
REMARK  279  A    between atoms: _690  and  _691
REMARK  280  A    between atoms: _694  and  _696
REMARK  281  A    between atoms: _696  and  _697
REMARK  282  A    between atoms: _696  and  _699
REMARK  283  A    between atoms: _699  and  _700
REMARK  284  A    between atoms: _703  and  _705
REMARK  285  A    between atoms: _705  and  _706
REMARK  286  A    between atoms: _705  and  _708
REMARK  287  A    between atoms: _711  and  _713
REMARK  288  A    between atoms: _713  and  _714
REMARK  289  A    between atoms: _716  and  _718
REMARK  290  A    between atoms: _718  and  _719
REMARK  291  A    between atoms: _722  and  _724
REMARK  292  A    between atoms: _724  and  _725
REMARK  293  A    between atoms: _724  and  _727
REMARK                            x       y       z     vdW  Elec       q    Type
REMARK                         _______ _______ _______ _____ _____    ______ ____
ROOT
ATOM      1  CA  GLU A   2       7.629  20.095  26.354  0.00  0.00    +0.137 C 
ENDROOT
BRANCH   1   3
ATOM      2  C   GLY A   1       8.065  21.991  27.827  0.00  0.00    +0.240 C 
ATOM      3  N   GLU A   2       7.773  20.704  27.669  0.00  0.00    -0.298 N 
ATOM      4  H   GLU A   2       7.643  20.111  28.514  0.00  0.00    +0.150 HD
ATOM      5  O   GLY A   1       8.197  22.773  26.884  0.00  0.00    -0.274 OA
BRANCH   2   6
ATOM      6  CA  GLY A   1       8.209  22.479  29.255  0.00  0.00    +0.169 C 
BRANCH   6   7
ATOM      7  N   GLY A   1       8.310  21.430  30.254  0.00  0.00    -0.236 NA
ATOM      8  H   GLY A   1       7.516  21.264  30.905  0.00  0.00    +0.142 HD
ENDBRANCH   6   7
ENDBRANCH   2   6
ENDBRANCH   1   3
BRANCH   1   9
ATOM      9  C   GLU A   2       6.229  20.172  25.755  0.00  0.00    +0.227 C 
ATOM     10  O   GLU A   2       6.073  20.444  24.564  0.00  0.00    -0.286 OA
ENDBRANCH   1   9
BRANCH   1  11
ATOM     11  CB  GLU A   2       8.055  18.632  26.425  0.00  0.00    +0.039 C 
BRANCH  11  12
ATOM     12  CG  GLU A   2       9.512  18.437  26.818  0.00  0.00    +0.116 C 
BRANCH  12  13
ATOM     13  CD  GLU A   2       9.816  17.012  27.257  0.00  0.00    +0.365 C 
ATOM     14  OE2 GLU A   2       8.861  16.222  27.434  0.00  0.00    -0.246 OA
ATOM     15  OE1 GLU A   2      11.011  16.686  27.432  0.00  0.00    -0.246 OA
ENDBRANCH  12  13
ENDBRANCH  11  12
ENDBRANCH   1  11
TORSDOF 7
REMARK  Name = ../refined-set-2016/1m4h/1m4h_pocket.pdb
REMARK  293 active torsions:
REMARK  status: ('A' for Active; 'I' for Inactive)
REMARK    1  A    between atoms: _1  and  _3
REMARK    2  A    between atoms: _3  and  _4
REMARK    3  A    between atoms: _3  and  _6
REMARK    4  A    between atoms: _6  and  _7
REMARK    5  A    between atoms: _7  and  _8
REMARK    6  A    between atoms: _8  and  _9
REMARK    7  A    between atoms: _9  and  _10
REMARK    8  A    between atoms: _14  and  _16
REMARK    9  A    between atoms: _16  and  _17
REMARK   10  A    between atoms: _16  and  _19
REMARK   11  A    between atoms: _19  and  _20
REMARK   12  A    between atoms: _22  and  _24
REMARK   13  A    between atoms: _24  and  _25
REMARK   14  A    between atoms: _27  and  _29
REMARK   15  A    between atoms: _29  and  _30
REMARK   16  A    between atoms: _29  and  _32
REMARK   17  A    between atoms: _32  and  _33
REMARK   18  A    between atoms: _33  and  _34
REMARK   19  A    between atoms: _39  and  _41
REMARK   20  A    between atoms: _41  and  _42
REMARK   21  A    between atoms: _44  and  _46
REMARK   22  A    between atoms: _46  and  _47
REMARK   23  A    between atoms: _46  and  _49
REMARK   24  A    between atoms: _49  and  _50
REMARK   25  A    between atoms: _55  and  _56
REMARK   26  A    between atoms: _58  and  _60
REMARK   27  A    between atoms: _60  and  _61
REMARK   28  A    between atoms: _60  and  _63
REMARK   29  A    between atoms: _63  and  _64
REMARK   30  A    between atoms: _67  and  _69
REMARK   31  A    between atoms: _69  and  _70
REMARK   32  A    between atoms: _69  and  _72
REMARK   33  A    between atoms: _75  and  _77
REMARK   34  A    between atoms: _77  and  _78
REMARK   35  A    between atoms: _77  and  _80
REMARK   36  A    between atoms: _80  and  _81
REMARK   37  A    between atoms: _84  and  _86
REMARK   38  A    between atoms: _86  and  _87
REMARK   39  A    between atoms: _86  and  _89
REMARK   40  A    between atoms: _89  and  _90
REMARK   41  A    between atoms: _93  and  _95
REMARK   42  A    between atoms: _95  and  _96
REMARK   43  A    between atoms: _98  and  _100
REMARK   44  A    between atoms: _100  and  _101
REMARK   45  A    between atoms: _100  and  _103
REMARK   46  A    between atoms: _103  and  _104
REMARK   47  A    between atoms: _106  and  _108
REMARK   48  A    between atoms: _108  and  _109
REMARK   49  A    between atoms: _108  and  _111
REMARK   50  A    between atoms: _111  and  _112
REMARK   51  A    between atoms: _114  and  _116
REMARK   52  A    between atoms: _116  and  _117
REMARK   53  A    between atoms: _116  and  _119
REMARK   54  A    between atoms: _119  and  _120
REMARK   55  A    between atoms: _125  and  _127
REMARK   56  A    between atoms: _127  and  _128
REMARK   57  A    between atoms: _127  and  _130
REMARK   58  A    between atoms: _130  and  _131
REMARK   59  A    between atoms: _136  and  _137
REMARK   60  A    between atoms: _139  and  _141
REMARK   61  A    between atoms: _141  and  _142
REMARK   62  A    between atoms: _141  and  _144
REMARK   63  A    between atoms: _148  and  _149
REMARK   64  A    between atoms: _154  and  _156
REMARK   65  A    between atoms: _156  and  _157
REMARK   66  A    between atoms: _156  and  _159
REMARK   67  A    between atoms: _159  and  _160
REMARK   68  A    between atoms: _165  and  _166
REMARK   69  A    between atoms: _168  and  _170
REMARK   70  A    between atoms: _170  and  _171
REMARK   71  A    between atoms: _170  and  _173
REMARK   72  A    between atoms: _173  and  _174
REMARK   73  A    between atoms: _177  and  _179
REMARK   74  A    between atoms: _179  and  _180
REMARK   75  A    between atoms: _179  and  _182
REMARK   76  A    between atoms: _182  and  _183
REMARK   77  A    between atoms: _183  and  _184
REMARK   78  A    between atoms: _189  and  _191
REMARK   79  A    between atoms: _191  and  _192
REMARK   80  A    between atoms: _194  and  _196
REMARK   81  A    between atoms: _196  and  _197
REMARK   82  A    between atoms: _196  and  _199
REMARK   83  A    between atoms: _199  and  _200
REMARK   84  A    between atoms: _200  and  _201
REMARK   85  A    between atoms: _201  and  _202
REMARK   86  A    between atoms: _202  and  _203
REMARK   87  A    between atoms: _207  and  _209
REMARK   88  A    between atoms: _209  and  _210
REMARK   89  A    between atoms: _209  and  _212
REMARK   90  A    between atoms: _212  and  _213
REMARK   91  A    between atoms: _223  and  _225
REMARK   92  A    between atoms: _225  and  _226
REMARK   93  A    between atoms: _225  and  _228
REMARK   94  A    between atoms: _228  and  _229
REMARK   95  A    between atoms: _232  and  _234
REMARK   96  A    between atoms: _234  and  _235
REMARK   97  A    between atoms: _234  and  _237
REMARK   98  A    between atoms: _237  and  _238
REMARK   99  A    between atoms: _238  and  _239
REMARK  100  A    between atoms: _239  and  _240
REMARK  101  A    between atoms: _240  and  _241
REMARK  102  A    between atoms: _245  and  _247
REMARK  103  A    between atoms: _247  and  _248
REMARK  104  A    between atoms: _247  and  _250
REMARK  105  A    between atoms: _250  and  _251
REMARK  106  A    between atoms: _257  and  _259
REMARK  107  A    between atoms: _259  and  _260
REMARK  108  A    between atoms: _259  and  _262
REMARK  109  A    between atoms: _262  and  _263
REMARK  110  A    between atoms: _269  and  _271
REMARK  111  A    between atoms: _271  and  _272
REMARK  112  A    between atoms: _271  and  _274
REMARK  113  A    between atoms: _274  and  _275
REMARK  114  A    between atoms: _278  and  _280
REMARK  115  A    between atoms: _280  and  _281
REMARK  116  A    between atoms: _280  and  _283
REMARK  117  A    between atoms: _283  and  _284
REMARK  118  A    between atoms: _286  and  _288
REMARK  119  A    between atoms: _288  and  _289
REMARK  120  A    between atoms: _288  and  _291
REMARK  121  A    between atoms: _291  and  _292
REMARK  122  A    between atoms: _302  and  _304
REMARK  123  A    between atoms: _304  and  _305
REMARK  124  A    between atoms: _307  and  _309
REMARK  125  A    between atoms: _309  and  _310
REMARK  126  A    between atoms: _309  and  _312
REMARK  127  A    between atoms: _312  and  _313
REMARK  128  A    between atoms: _316  and  _318
REMARK  129  A    between atoms: _318  and  _319
REMARK  130  A    between atoms: _318  and  _321
REMARK  131  A    between atoms: _321  and  _322
REMARK  132  A    between atoms: _325  and  _327
REMARK  133  A    between atoms: _327  and  _328
REMARK  134  A    between atoms: _327  and  _330
REMARK  135  A    between atoms: _330  and  _331
REMARK  136  A    between atoms: _334  and  _336
REMARK  137  A    between atoms: _336  and  _337
REMARK  138  A    between atoms: _340  and  _342
REMARK  139  A    between atoms: _342  and  _343
REMARK  140  A    between atoms: _342  and  _345
REMARK  141  A    between atoms: _345  and  _346
REMARK  142  A    between atoms: _351  and  _352
REMARK  143  A    between atoms: _354  and  _356
REMARK  144  A    between atoms: _356  and  _357
REMARK  145  A    between atoms: _360  and  _362
REMARK  146  A    between atoms: _362  and  _363
REMARK  147  A    between atoms: _362  and  _365
REMARK  148  A    between atoms: _365  and  _366
REMARK  149  A    between atoms: _366  and  _367
REMARK  150  A    between atoms: _370  and  _372
REMARK  151  A    between atoms: _372  and  _373
REMARK  152  A    between atoms: _372  and  _375
REMARK  153  A    between atoms: _375  and  _376
REMARK  154  A    between atoms: _379  and  _381
REMARK  155  A    between atoms: _381  and  _382
REMARK  156  A    between atoms: _385  and  _387
REMARK  157  A    between atoms: _387  and  _388
REMARK  158  A    between atoms: _387  and  _390
REMARK  159  A    between atoms: _390  and  _391
REMARK  160  A    between atoms: _391  and  _392
REMARK  161  A    between atoms: _392  and  _393
REMARK  162  A    between atoms: _403  and  _404
REMARK  163  A    between atoms: _409  and  _411
REMARK  164  A    between atoms: _411  and  _412
REMARK  165  A    between atoms: _411  and  _414
REMARK  166  A    between atoms: _414  and  _415
REMARK  167  A    between atoms: _418  and  _420
REMARK  168  A    between atoms: _420  and  _421
REMARK  169  A    between atoms: _420  and  _423
REMARK  170  A    between atoms: _423  and  _424
REMARK  171  A    between atoms: _427  and  _429
REMARK  172  A    between atoms: _429  and  _430
REMARK  173  A    between atoms: _429  and  _432
REMARK  174  A    between atoms: _432  and  _433
REMARK  175  A    between atoms: _433  and  _434
REMARK  176  A    between atoms: _434  and  _435
REMARK  177  A    between atoms: _444  and  _446
REMARK  178  A    between atoms: _446  and  _447
REMARK  179  A    between atoms: _446  and  _449
REMARK  180  A    between atoms: _449  and  _450
REMARK  181  A    between atoms: _460  and  _462
REMARK  182  A    between atoms: _462  and  _463
REMARK  183  A    between atoms: _462  and  _465
REMARK  184  A    between atoms: _465  and  _466
REMARK  185  A    between atoms: _471  and  _472
REMARK  186  A    between atoms: _474  and  _476
REMARK  187  A    between atoms: _476  and  _477
REMARK  188  A    between atoms: _476  and  _479
REMARK  189  A    between atoms: _479  and  _480
REMARK  190  A    between atoms: _480  and  _481
REMARK  191  A    between atoms: _481  and  _482
REMARK  192  A    between atoms: _482  and  _483
REMARK  193  A    between atoms: _487  and  _489
REMARK  194  A    between atoms: _489  and  _490
REMARK  195  A    between atoms: _489  and  _492
REMARK  196  A    between atoms: _492  and  _493
REMARK  197  A    between atoms: _496  and  _498
REMARK  198  A    between atoms: _498  and  _499
REMARK  199  A    between atoms: _498  and  _501
REMARK  200  A    between atoms: _504  and  _506
REMARK  201  A    between atoms: _506  and  _507
REMARK  202  A    between atoms: _506  and  _509
REMARK  203  A    between atoms: _509  and  _510
REMARK  204  A    between atoms: _513  and  _515
REMARK  205  A    between atoms: _515  and  _516
REMARK  206  A    between atoms: _515  and  _518
REMARK  207  A    between atoms: _518  and  _519
REMARK  208  A    between atoms: _521  and  _523
REMARK  209  A    between atoms: _523  and  _524
REMARK  210  A    between atoms: _526  and  _528
REMARK  211  A    between atoms: _528  and  _529
REMARK  212  A    between atoms: _528  and  _531
REMARK  213  A    between atoms: _531  and  _532
REMARK  214  A    between atoms: _535  and  _537
REMARK  215  A    between atoms: _537  and  _538
REMARK  216  A    between atoms: _537  and  _540
REMARK  217  A    between atoms: _540  and  _541
REMARK  218  A    between atoms: _544  and  _546
REMARK  219  A    between atoms: _546  and  _547
REMARK  220  A    between atoms: _546  and  _549
REMARK  221  A    between atoms: _549  and  _550
REMARK  222  A    between atoms: _555  and  _557
REMARK  223  A    between atoms: _557  and  _558
REMARK  224  A    between atoms: _557  and  _560
REMARK  225  A    between atoms: _560  and  _561
REMARK  226  A    between atoms: _564  and  _566
REMARK  227  A    between atoms: _566  and  _567
REMARK  228  A    between atoms: _566  and  _569
REMARK  229  A    between atoms: _569  and  _570
REMARK  230  A    between atoms: _570  and  _571
REMARK  231  A    between atoms: _571  and  _572
REMARK  232  A    between atoms: _581  and  _583
REMARK  233  A    between atoms: _583  and  _584
REMARK  234  A    between atoms: _586  and  _588
REMARK  235  A    between atoms: _588  and  _589
REMARK  236  A    between atoms: _588  and  _591
REMARK  237  A    between atoms: _591  and  _592
REMARK  238  A    between atoms: _592  and  _593
REMARK  239  A    between atoms: _596  and  _598
REMARK  240  A    between atoms: _598  and  _599
REMARK  241  A    between atoms: _598  and  _601
REMARK  242  A    between atoms: _601  and  _602
REMARK  243  A    between atoms: _602  and  _603
REMARK  244  A    between atoms: _603  and  _604
REMARK  245  A    between atoms: _614  and  _615
REMARK  246  A    between atoms: _620  and  _622
REMARK  247  A    between atoms: _622  and  _623
REMARK  248  A    between atoms: _622  and  _625
REMARK  249  A    between atoms: _628  and  _630
REMARK  250  A    between atoms: _630  and  _631
REMARK  251  A    between atoms: _630  and  _633
REMARK  252  A    between atoms: _633  and  _634
REMARK  253  A    between atoms: _634  and  _635
REMARK  254  A    between atoms: _638  and  _640
REMARK  255  A    between atoms: _640  and  _641
REMARK  256  A    between atoms: _640  and  _643
REMARK  257  A    between atoms: _643  and  _644
REMARK  258  A    between atoms: _644  and  _645
REMARK  259  A    between atoms: _645  and  _646
REMARK  260  A    between atoms: _646  and  _647
REMARK  261  A    between atoms: _651  and  _653
REMARK  262  A    between atoms: _653  and  _654
REMARK  263  A    between atoms: _657  and  _659
REMARK  264  A    between atoms: _659  and  _660
REMARK  265  A    between atoms: _659  and  _662
REMARK  266  A    between atoms: _662  and  _663
REMARK  267  A    between atoms: _665  and  _667
REMARK  268  A    between atoms: _667  and  _668
REMARK  269  A    between atoms: _667  and  _670
REMARK  270  A    between atoms: _670  and  _671
REMARK  271  A    between atoms: _671  and  _672
REMARK  272  A    between atoms: _677  and  _679
REMARK  273  A    between atoms: _679  and  _680
REMARK  274  A    between atoms: _679  and  _682
REMARK  275  A    between atoms: _682  and  _683
REMARK  276  A    between atoms: _685  and  _687
REMARK  277  A    between atoms: _687  and  _688
REMARK  278  A    between atoms: _687  and  _690
REMARK  279  A    between atoms: _690  and  _691
REMARK  280  A    between atoms: _694  and  _696
REMARK  281  A    between atoms: _696  and  _697
REMARK  282  A    between atoms: _696  and  _699
REMARK  283  A    between atoms: _699  and  _700
REMARK  284  A    between atoms: _703  and  _705
REMARK  285  A    between atoms: _705  and  _706
REMARK  286  A    between atoms: _705  and  _708
REMARK  287  A    between atoms: _711  and  _713
REMARK  288  A    between atoms: _713  and  _714
REMARK  289  A    between atoms: _716  and  _718
REMARK  290  A    between atoms: _718  and  _719
REMARK  291  A    between atoms: _722  and  _724
REMARK  292  A    between atoms: _724  and  _725
REMARK  293  A    between atoms: _724  and  _727
REMARK                            x       y       z     vdW  Elec       q    Type
REMARK                         _______ _______ _______ _____ _____    ______ ____
ROOT
ATOM      1  C   ARG A   1       2.320  30.666  26.946  0.00  0.00    +0.241 C 
ATOM      2  N   PRO A   2       1.522  31.667  26.541  0.00  0.00    -0.272 N 
ATOM      3  CD  PRO A   2       1.608  33.112  26.824  0.00  0.00    +0.094 C 
ATOM      4  CG  PRO A   2       0.203  33.574  26.550  0.00  0.00    +0.024 C 
ATOM      5  CB  PRO A   2      -0.196  32.749  25.338  0.00  0.00    +0.031 C 
ATOM      6  CA  PRO A   2       0.445  31.375  25.585  0.00  0.00    +0.152 C 
ATOM      7  O   ARG A   1       2.183  29.529  26.515  0.00  0.00    -0.273 OA
ENDROOT
BRANCH   6   8
ATOM      8  C   PRO A   2       0.965  30.755  24.271  0.00  0.00    +0.241 C 
ATOM      9  N   VAL A   3       0.314  29.685  23.820  0.00  0.00    -0.297 N 
ATOM     10  H   VAL A   3      -0.474  29.310  24.386  0.00  0.00    +0.150 HD
ATOM     11  O   PRO A   2       1.947  31.229  23.698  0.00  0.00    -0.273 OA
BRANCH   9  12
ATOM     12  CA  VAL A   3       0.655  29.009  22.562  0.00  0.00    +0.149 C 
BRANCH  12  13
ATOM     13  C   VAL A   3      -0.673  28.569  21.931  0.00  0.00    +0.241 C 
ATOM     14  O   VAL A   3      -1.601  28.180  22.634  0.00  0.00    -0.273 OA
ATOM     15  N   GLU A   4      -0.775  28.646  20.614  0.00  0.00    -0.298 N 
ATOM     16  H   GLU A   4       0.034  28.977  20.051  0.00  0.00    +0.150 HD
BRANCH  15  17
ATOM     17  CA  GLU A   4      -2.016  28.269  19.949  0.00  0.00    +0.137 C 
BRANCH  17  18
ATOM     18  C   GLU A   4      -2.222  26.768  20.071  0.00  0.00    +0.227 C 
ATOM     19  O   GLU A   4      -1.259  25.997  20.086  0.00  0.00    -0.286 OA
ENDBRANCH  17  18
BRANCH  17  20
ATOM     20  CB  GLU A   4      -1.977  28.701  18.477  0.00  0.00    +0.039 C 
BRANCH  20  21
ATOM     21  CG  GLU A   4      -3.302  28.591  17.717  0.00  0.00    +0.116 C 
BRANCH  21  22
ATOM     22  CD  GLU A   4      -4.509  29.001  18.547  0.00  0.00    +0.365 C 
ATOM     23  OE2 GLU A   4      -5.086  28.121  19.225  0.00  0.00    -0.246 OA
ATOM     24  OE1 GLU A   4      -4.879  30.197  18.531  0.00  0.00    -0.246 OA
ENDBRANCH  21  22
ENDBRANCH  20  21
ENDBRANCH  17  20
ENDBRANCH  15  17
ENDBRANCH  12  13
BRANCH  12  25
ATOM     25  CB  VAL A   3       1.542  27.761  22.778  0.00  0.00    +0.027 C 
ATOM     26  CG2 VAL A   3       0.844  26.787  23.721  0.00  0.00    +0.002 C 
ATOM     27  CG1 VAL A   3       2.908  28.166  23.346  0.00  0.00    +0.002 C 
ENDBRANCH  12  25
ENDBRANCH   9  12
ENDBRANCH   6   8
BRANCH   1  28
ATOM     28  CA  ARG A   1       3.444  30.995  27.947  0.00  0.00    +0.145 C 
BRANCH  28  29
ATOM     29  N   ARG A   1       3.335  30.351  29.262  0.00  0.00    -0.238 NA
ATOM     30  H   ARG A   1       3.853  29.465  29.431  0.00  0.00    +0.142 HD
ENDBRANCH  28  29
BRANCH  28  31
ATOM     31  CB  ARG A   1       4.803  30.629  27.330  0.00  0.00    +0.030 C 
BRANCH  31  32
ATOM     32  CG  ARG A   1       5.114  31.404  26.034  0.00  0.00    +0.045 C 
BRANCH  32  33
ATOM     33  CD  ARG A   1       6.595  31.314  25.633  0.00  0.00    +0.174 C 
BRANCH  33  34
ATOM     34  NE  ARG A   1       6.985  29.985  25.150  0.00  0.00    -0.265 N 
ATOM     35  HE  ARG A   1       7.526  29.373  25.794  0.00  0.00    +0.259 HD
ATOM     36  CZ  ARG A   1       6.691  29.511  23.940  0.00  0.00    +0.342 C 
ATOM     37  NH2 ARG A   1       7.079  28.292  23.592  0.00  0.00    -0.292 N 
ATOM     38 HH21 ARG A   1       7.613  27.705  24.264  0.00  0.00    +0.255 HD
ATOM     39 HH22 ARG A   1       6.849  27.923  22.647  0.00  0.00    +0.255 HD
ATOM     40  NH1 ARG A   1       6.004  30.252  23.076  0.00  0.00    -0.292 N 
ATOM     41 HH11 ARG A   1       5.693  31.208  23.343  0.00  0.00    +0.255 HD
ATOM     42 HH12 ARG A   1       5.778  29.876  22.133  0.00  0.00    +0.255 HD
ENDBRANCH  33  34
ENDBRANCH  32  33
ENDBRANCH  31  32
ENDBRANCH  28  31
ENDBRANCH   1  28
TORSDOF 15
REMARK  Name = ../refined-set-2016/1m4h/1m4h_pocket.pdb
REMARK  293 active torsions:
REMARK  status: ('A' for Active; 'I' for Inactive)
REMARK    1  A    between atoms: _1  and  _3
REMARK    2  A    between atoms: _3  and  _4
REMARK    3  A    between atoms: _3  and  _6
REMARK    4  A    between atoms: _6  and  _7
REMARK    5  A    between atoms: _7  and  _8
REMARK    6  A    between atoms: _8  and  _9
REMARK    7  A    between atoms: _9  and  _10
REMARK    8  A    between atoms: _14  and  _16
REMARK    9  A    between atoms: _16  and  _17
REMARK   10  A    between atoms: _16  and  _19
REMARK   11  A    between atoms: _19  and  _20
REMARK   12  A    between atoms: _22  and  _24
REMARK   13  A    between atoms: _24  and  _25
REMARK   14  A    between atoms: _27  and  _29
REMARK   15  A    between atoms: _29  and  _30
REMARK   16  A    between atoms: _29  and  _32
REMARK   17  A    between atoms: _32  and  _33
REMARK   18  A    between atoms: _33  and  _34
REMARK   19  A    between atoms: _39  and  _41
REMARK   20  A    between atoms: _41  and  _42
REMARK   21  A    between atoms: _44  and  _46
REMARK   22  A    between atoms: _46  and  _47
REMARK   23  A    between atoms: _46  and  _49
REMARK   24  A    between atoms: _49  and  _50
REMARK   25  A    between atoms: _55  and  _56
REMARK   26  A    between atoms: _58  and  _60
REMARK   27  A    between atoms: _60  and  _61
REMARK   28  A    between atoms: _60  and  _63
REMARK   29  A    between atoms: _63  and  _64
REMARK   30  A    between atoms: _67  and  _69
REMARK   31  A    between atoms: _69  and  _70
REMARK   32  A    between atoms: _69  and  _72
REMARK   33  A    between atoms: _75  and  _77
REMARK   34  A    between atoms: _77  and  _78
REMARK   35  A    between atoms: _77  and  _80
REMARK   36  A    between atoms: _80  and  _81
REMARK   37  A    between atoms: _84  and  _86
REMARK   38  A    between atoms: _86  and  _87
REMARK   39  A    between atoms: _86  and  _89
REMARK   40  A    between atoms: _89  and  _90
REMARK   41  A    between atoms: _93  and  _95
REMARK   42  A    between atoms: _95  and  _96
REMARK   43  A    between atoms: _98  and  _100
REMARK   44  A    between atoms: _100  and  _101
REMARK   45  A    between atoms: _100  and  _103
REMARK   46  A    between atoms: _103  and  _104
REMARK   47  A    between atoms: _106  and  _108
REMARK   48  A    between atoms: _108  and  _109
REMARK   49  A    between atoms: _108  and  _111
REMARK   50  A    between atoms: _111  and  _112
REMARK   51  A    between atoms: _114  and  _116
REMARK   52  A    between atoms: _116  and  _117
REMARK   53  A    between atoms: _116  and  _119
REMARK   54  A    between atoms: _119  and  _120
REMARK   55  A    between atoms: _125  and  _127
REMARK   56  A    between atoms: _127  and  _128
REMARK   57  A    between atoms: _127  and  _130
REMARK   58  A    between atoms: _130  and  _131
REMARK   59  A    between atoms: _136  and  _137
REMARK   60  A    between atoms: _139  and  _141
REMARK   61  A    between atoms: _141  and  _142
REMARK   62  A    between atoms: _141  and  _144
REMARK   63  A    between atoms: _148  and  _149
REMARK   64  A    between atoms: _154  and  _156
REMARK   65  A    between atoms: _156  and  _157
REMARK   66  A    between atoms: _156  and  _159
REMARK   67  A    between atoms: _159  and  _160
REMARK   68  A    between atoms: _165  and  _166
REMARK   69  A    between atoms: _168  and  _170
REMARK   70  A    between atoms: _170  and  _171
REMARK   71  A    between atoms: _170  and  _173
REMARK   72  A    between atoms: _173  and  _174
REMARK   73  A    between atoms: _177  and  _179
REMARK   74  A    between atoms: _179  and  _180
REMARK   75  A    between atoms: _179  and  _182
REMARK   76  A    between atoms: _182  and  _183
REMARK   77  A    between atoms: _183  and  _184
REMARK   78  A    between atoms: _189  and  _191
REMARK   79  A    between atoms: _191  and  _192
REMARK   80  A    between atoms: _194  and  _196
REMARK   81  A    between atoms: _196  and  _197
REMARK   82  A    between atoms: _196  and  _199
REMARK   83  A    between atoms: _199  and  _200
REMARK   84  A    between atoms: _200  and  _201
REMARK   85  A    between atoms: _201  and  _202
REMARK   86  A    between atoms: _202  and  _203
REMARK   87  A    between atoms: _207  and  _209
REMARK   88  A    between atoms: _209  and  _210
REMARK   89  A    between atoms: _209  and  _212
REMARK   90  A    between atoms: _212  and  _213
REMARK   91  A    between atoms: _223  and  _225
REMARK   92  A    between atoms: _225  and  _226
REMARK   93  A    between atoms: _225  and  _228
REMARK   94  A    between atoms: _228  and  _229
REMARK   95  A    between atoms: _232  and  _234
REMARK   96  A    between atoms: _234  and  _235
REMARK   97  A    between atoms: _234  and  _237
REMARK   98  A    between atoms: _237  and  _238
REMARK   99  A    between atoms: _238  and  _239
REMARK  100  A    between atoms: _239  and  _240
REMARK  101  A    between atoms: _240  and  _241
REMARK  102  A    between atoms: _245  and  _247
REMARK  103  A    between atoms: _247  and  _248
REMARK  104  A    between atoms: _247  and  _250
REMARK  105  A    between atoms: _250  and  _251
REMARK  106  A    between atoms: _257  and  _259
REMARK  107  A    between atoms: _259  and  _260
REMARK  108  A    between atoms: _259  and  _262
REMARK  109  A    between atoms: _262  and  _263
REMARK  110  A    between atoms: _269  and  _271
REMARK  111  A    between atoms: _271  and  _272
REMARK  112  A    between atoms: _271  and  _274
REMARK  113  A    between atoms: _274  and  _275
REMARK  114  A    between atoms: _278  and  _280
REMARK  115  A    between atoms: _280  and  _281
REMARK  116  A    between atoms: _280  and  _283
REMARK  117  A    between atoms: _283  and  _284
REMARK  118  A    between atoms: _286  and  _288
REMARK  119  A    between atoms: _288  and  _289
REMARK  120  A    between atoms: _288  and  _291
REMARK  121  A    between atoms: _291  and  _292
REMARK  122  A    between atoms: _302  and  _304
REMARK  123  A    between atoms: _304  and  _305
REMARK  124  A    between atoms: _307  and  _309
REMARK  125  A    between atoms: _309  and  _310
REMARK  126  A    between atoms: _309  and  _312
REMARK  127  A    between atoms: _312  and  _313
REMARK  128  A    between atoms: _316  and  _318
REMARK  129  A    between atoms: _318  and  _319
REMARK  130  A    between atoms: _318  and  _321
REMARK  131  A    between atoms: _321  and  _322
REMARK  132  A    between atoms: _325  and  _327
REMARK  133  A    between atoms: _327  and  _328
REMARK  134  A    between atoms: _327  and  _330
REMARK  135  A    between atoms: _330  and  _331
REMARK  136  A    between atoms: _334  and  _336
REMARK  137  A    between atoms: _336  and  _337
REMARK  138  A    between atoms: _340  and  _342
REMARK  139  A    between atoms: _342  and  _343
REMARK  140  A    between atoms: _342  and  _345
REMARK  141  A    between atoms: _345  and  _346
REMARK  142  A    between atoms: _351  and  _352
REMARK  143  A    between atoms: _354  and  _356
REMARK  144  A    between atoms: _356  and  _357
REMARK  145  A    between atoms: _360  and  _362
REMARK  146  A    between atoms: _362  and  _363
REMARK  147  A    between atoms: _362  and  _365
REMARK  148  A    between atoms: _365  and  _366
REMARK  149  A    between atoms: _366  and  _367
REMARK  150  A    between atoms: _370  and  _372
REMARK  151  A    between atoms: _372  and  _373
REMARK  152  A    between atoms: _372  and  _375
REMARK  153  A    between atoms: _375  and  _376
REMARK  154  A    between atoms: _379  and  _381
REMARK  155  A    between atoms: _381  and  _382
REMARK  156  A    between atoms: _385  and  _387
REMARK  157  A    between atoms: _387  and  _388
REMARK  158  A    between atoms: _387  and  _390
REMARK  159  A    between atoms: _390  and  _391
REMARK  160  A    between atoms: _391  and  _392
REMARK  161  A    between atoms: _392  and  _393
REMARK  162  A    between atoms: _403  and  _404
REMARK  163  A    between atoms: _409  and  _411
REMARK  164  A    between atoms: _411  and  _412
REMARK  165  A    between atoms: _411  and  _414
REMARK  166  A    between atoms: _414  and  _415
REMARK  167  A    between atoms: _418  and  _420
REMARK  168  A    between atoms: _420  and  _421
REMARK  169  A    between atoms: _420  and  _423
REMARK  170  A    between atoms: _423  and  _424
REMARK  171  A    between atoms: _427  and  _429
REMARK  172  A    between atoms: _429  and  _430
REMARK  173  A    between atoms: _429  and  _432
REMARK  174  A    between atoms: _432  and  _433
REMARK  175  A    between atoms: _433  and  _434
REMARK  176  A    between atoms: _434  and  _435
REMARK  177  A    between atoms: _444  and  _446
REMARK  178  A    between atoms: _446  and  _447
REMARK  179  A    between atoms: _446  and  _449
REMARK  180  A    between atoms: _449  and  _450
REMARK  181  A    between atoms: _460  and  _462
REMARK  182  A    between atoms: _462  and  _463
REMARK  183  A    between atoms: _462  and  _465
REMARK  184  A    between atoms: _465  and  _466
REMARK  185  A    between atoms: _471  and  _472
REMARK  186  A    between atoms: _474  and  _476
REMARK  187  A    between atoms: _476  and  _477
REMARK  188  A    between atoms: _476  and  _479
REMARK  189  A    between atoms: _479  and  _480
REMARK  190  A    between atoms: _480  and  _481
REMARK  191  A    between atoms: _481  and  _482
REMARK  192  A    between atoms: _482  and  _483
REMARK  193  A    between atoms: _487  and  _489
REMARK  194  A    between atoms: _489  and  _490
REMARK  195  A    between atoms: _489  and  _492
REMARK  196  A    between atoms: _492  and  _493
REMARK  197  A    between atoms: _496  and  _498
REMARK  198  A    between atoms: _498  and  _499
REMARK  199  A    between atoms: _498  and  _501
REMARK  200  A    between atoms: _504  and  _506
REMARK  201  A    between atoms: _506  and  _507
REMARK  202  A    between atoms: _506  and  _509
REMARK  203  A    between atoms: _509  and  _510
REMARK  204  A    between atoms: _513  and  _515
REMARK  205  A    between atoms: _515  and  _516
REMARK  206  A    between atoms: _515  and  _518
REMARK  207  A    between atoms: _518  and  _519
REMARK  208  A    between atoms: _521  and  _523
REMARK  209  A    between atoms: _523  and  _524
REMARK  210  A    between atoms: _526  and  _528
REMARK  211  A    between atoms: _528  and  _529
REMARK  212  A    between atoms: _528  and  _531
REMARK  213  A    between atoms: _531  and  _532
REMARK  214  A    between atoms: _535  and  _537
REMARK  215  A    between atoms: _537  and  _538
REMARK  216  A    between atoms: _537  and  _540
REMARK  217  A    between atoms: _540  and  _541
REMARK  218  A    between atoms: _544  and  _546
REMARK  219  A    between atoms: _546  and  _547
REMARK  220  A    between atoms: _546  and  _549
REMARK  221  A    between atoms: _549  and  _550
REMARK  222  A    between atoms: _555  and  _557
REMARK  223  A    between atoms: _557  and  _558
REMARK  224  A    between atoms: _557  and  _560
REMARK  225  A    between atoms: _560  and  _561
REMARK  226  A    between atoms: _564  and  _566
REMARK  227  A    between atoms: _566  and  _567
REMARK  228  A    between atoms: _566  and  _569
REMARK  229  A    between atoms: _569  and  _570
REMARK  230  A    between atoms: _570  and  _571
REMARK  231  A    between atoms: _571  and  _572
REMARK  232  A    between atoms: _581  and  _583
REMARK  233  A    between atoms: _583  and  _584
REMARK  234  A    between atoms: _586  and  _588
REMARK  235  A    between atoms: _588  and  _589
REMARK  236  A    between atoms: _588  and  _591
REMARK  237  A    between atoms: _591  and  _592
REMARK  238  A    between atoms: _592  and  _593
REMARK  239  A    between atoms: _596  and  _598
REMARK  240  A    between atoms: _598  and  _599
REMARK  241  A    between atoms: _598  and  _601
REMARK  242  A    between atoms: _601  and  _602
REMARK  243  A    between atoms: _602  and  _603
REMARK  244  A    between atoms: _603  and  _604
REMARK  245  A    between atoms: _614  and  _615
REMARK  246  A    between atoms: _620  and  _622
REMARK  247  A    between atoms: _622  and  _623
REMARK  248  A    between atoms: _622  and  _625
REMARK  249  A    between atoms: _628  and  _630
REMARK  250  A    between atoms: _630  and  _631
REMARK  251  A    between atoms: _630  and  _633
REMARK  252  A    between atoms: _633  and  _634
REMARK  253  A    between atoms: _634  and  _635
REMARK  254  A    between atoms: _638  and  _640
REMARK  255  A    between atoms: _640  and  _641
REMARK  256  A    between atoms: _640  and  _643
REMARK  257  A    between atoms: _643  and  _644
REMARK  258  A    between atoms: _644  and  _645
REMARK  259  A    between atoms: _645  and  _646
REMARK  260  A    between atoms: _646  and  _647
REMARK  261  A    between atoms: _651  and  _653
REMARK  262  A    between atoms: _653  and  _654
REMARK  263  A    between atoms: _657  and  _659
REMARK  264  A    between atoms: _659  and  _660
REMARK  265  A    between atoms: _659  and  _662
REMARK  266  A    between atoms: _662  and  _663
REMARK  267  A    between atoms: _665  and  _667
REMARK  268  A    between atoms: _667  and  _668
REMARK  269  A    between atoms: _667  and  _670
REMARK  270  A    between atoms: _670  and  _671
REMARK  271  A    between atoms: _671  and  _672
REMARK  272  A    between atoms: _677  and  _679
REMARK  273  A    between atoms: _679  and  _680
REMARK  274  A    between atoms: _679  and  _682
REMARK  275  A    between atoms: _682  and  _683
REMARK  276  A    between atoms: _685  and  _687
REMARK  277  A    between atoms: _687  and  _688
REMARK  278  A    between atoms: _687  and  _690
REMARK  279  A    between atoms: _690  and  _691
REMARK  280  A    between atoms: _694  and  _696
REMARK  281  A    between atoms: _696  and  _697
REMARK  282  A    between atoms: _696  and  _699
REMARK  283  A    between atoms: _699  and  _700
REMARK  284  A    between atoms: _703  and  _705
REMARK  285  A    between atoms: _705  and  _706
REMARK  286  A    between atoms: _705  and  _708
REMARK  287  A    between atoms: _711  and  _713
REMARK  288  A    between atoms: _713  and  _714
REMARK  289  A    between atoms: _716  and  _718
REMARK  290  A    between atoms: _718  and  _719
REMARK  291  A    between atoms: _722  and  _724
REMARK  292  A    between atoms: _724  and  _725
REMARK  293  A    between atoms: _724  and  _727
REMARK                            x       y       z     vdW  Elec       q    Type
REMARK                         _______ _______ _______ _____ _____    ______ ____
ROOT
ATOM      1  CG  LYS A   1       4.167  24.897  25.657  0.00  0.00    -0.000 C 
ENDROOT
BRANCH   1   2
ATOM      2  CB  LYS A   1       4.499  25.831  26.815  0.00  0.00    +0.025 C 
BRANCH   2   3
ATOM      3  CA  LYS A   1       3.448  25.840  27.927  0.00  0.00    +0.133 C 
BRANCH   3   4
ATOM      4  N   LYS A   1       2.338  26.727  27.615  0.00  0.00    -0.239 NA
ATOM      5  H   LYS A   1       2.538  27.728  27.415  0.00  0.00    +0.142 HD
ENDBRANCH   3   4
BRANCH   3   6
ATOM      6  C   LYS A   1       4.041  26.449  29.196  0.00  0.00    +0.224 C 
ATOM      7  O   LYS A   1       3.928  27.664  29.417  0.00  0.00    -0.287 OA
ENDBRANCH   3   6
ENDBRANCH   2   3
ENDBRANCH   1   2
BRANCH   1   8
ATOM      8  CD  LYS A   1       5.367  24.710  24.740  0.00  0.00    -0.024 C 
BRANCH   8   9
ATOM      9  CE  LYS A   1       5.025  23.801  23.554  0.00  0.00    -0.086 C 
BRANCH   9  10
ATOM     10  NZ  LYS A   1       6.031  23.891  22.457  0.00  0.00    +0.380 N 
ATOM     11  HZ1 LYS A   1       6.964  23.608  22.820  0.00  0.00    -0.089 HD
ATOM     12  HZ2 LYS A   1       6.076  24.870  22.109  0.00  0.00    -0.089 HD
ATOM     13  HZ3 LYS A   1       5.753  23.258  21.680  0.00  0.00    -0.089 HD
ENDBRANCH   9  10
ENDBRANCH   8   9
ENDBRANCH   1   8
TORSDOF 7
REMARK  Name = ../refined-set-2016/1m4h/1m4h_pocket.pdb
REMARK  293 active torsions:
REMARK  status: ('A' for Active; 'I' for Inactive)
REMARK    1  A    between atoms: _1  and  _3
REMARK    2  A    between atoms: _3  and  _4
REMARK    3  A    between atoms: _3  and  _6
REMARK    4  A    between atoms: _6  and  _7
REMARK    5  A    between atoms: _7  and  _8
REMARK    6  A    between atoms: _8  and  _9
REMARK    7  A    between atoms: _9  and  _10
REMARK    8  A    between atoms: _14  and  _16
REMARK    9  A    between atoms: _16  and  _17
REMARK   10  A    between atoms: _16  and  _19
REMARK   11  A    between atoms: _19  and  _20
REMARK   12  A    between atoms: _22  and  _24
REMARK   13  A    between atoms: _24  and  _25
REMARK   14  A    between atoms: _27  and  _29
REMARK   15  A    between atoms: _29  and  _30
REMARK   16  A    between atoms: _29  and  _32
REMARK   17  A    between atoms: _32  and  _33
REMARK   18  A    between atoms: _33  and  _34
REMARK   19  A    between atoms: _39  and  _41
REMARK   20  A    between atoms: _41  and  _42
REMARK   21  A    between atoms: _44  and  _46
REMARK   22  A    between atoms: _46  and  _47
REMARK   23  A    between atoms: _46  and  _49
REMARK   24  A    between atoms: _49  and  _50
REMARK   25  A    between atoms: _55  and  _56
REMARK   26  A    between atoms: _58  and  _60
REMARK   27  A    between atoms: _60  and  _61
REMARK   28  A    between atoms: _60  and  _63
REMARK   29  A    between atoms: _63  and  _64
REMARK   30  A    between atoms: _67  and  _69
REMARK   31  A    between atoms: _69  and  _70
REMARK   32  A    between atoms: _69  and  _72
REMARK   33  A    between atoms: _75  and  _77
REMARK   34  A    between atoms: _77  and  _78
REMARK   35  A    between atoms: _77  and  _80
REMARK   36  A    between atoms: _80  and  _81
REMARK   37  A    between atoms: _84  and  _86
REMARK   38  A    between atoms: _86  and  _87
REMARK   39  A    between atoms: _86  and  _89
REMARK   40  A    between atoms: _89  and  _90
REMARK   41  A    between atoms: _93  and  _95
REMARK   42  A    between atoms: _95  and  _96
REMARK   43  A    between atoms: _98  and  _100
REMARK   44  A    between atoms: _100  and  _101
REMARK   45  A    between atoms: _100  and  _103
REMARK   46  A    between atoms: _103  and  _104
REMARK   47  A    between atoms: _106  and  _108
REMARK   48  A    between atoms: _108  and  _109
REMARK   49  A    between atoms: _108  and  _111
REMARK   50  A    between atoms: _111  and  _112
REMARK   51  A    between atoms: _114  and  _116
REMARK   52  A    between atoms: _116  and  _117
REMARK   53  A    between atoms: _116  and  _119
REMARK   54  A    between atoms: _119  and  _120
REMARK   55  A    between atoms: _125  and  _127
REMARK   56  A    between atoms: _127  and  _128
REMARK   57  A    between atoms: _127  and  _130
REMARK   58  A    between atoms: _130  and  _131
REMARK   59  A    between atoms: _136  and  _137
REMARK   60  A    between atoms: _139  and  _141
REMARK   61  A    between atoms: _141  and  _142
REMARK   62  A    between atoms: _141  and  _144
REMARK   63  A    between atoms: _148  and  _149
REMARK   64  A    between atoms: _154  and  _156
REMARK   65  A    between atoms: _156  and  _157
REMARK   66  A    between atoms: _156  and  _159
REMARK   67  A    between atoms: _159  and  _160
REMARK   68  A    between atoms: _165  and  _166
REMARK   69  A    between atoms: _168  and  _170
REMARK   70  A    between atoms: _170  and  _171
REMARK   71  A    between atoms: _170  and  _173
REMARK   72  A    between atoms: _173  and  _174
REMARK   73  A    between atoms: _177  and  _179
REMARK   74  A    between atoms: _179  and  _180
REMARK   75  A    between atoms: _179  and  _182
REMARK   76  A    between atoms: _182  and  _183
REMARK   77  A    between atoms: _183  and  _184
REMARK   78  A    between atoms: _189  and  _191
REMARK   79  A    between atoms: _191  and  _192
REMARK   80  A    between atoms: _194  and  _196
REMARK   81  A    between atoms: _196  and  _197
REMARK   82  A    between atoms: _196  and  _199
REMARK   83  A    between atoms: _199  and  _200
REMARK   84  A    between atoms: _200  and  _201
REMARK   85  A    between atoms: _201  and  _202
REMARK   86  A    between atoms: _202  and  _203
REMARK   87  A    between atoms: _207  and  _209
REMARK   88  A    between atoms: _209  and  _210
REMARK   89  A    between atoms: _209  and  _212
REMARK   90  A    between atoms: _212  and  _213
REMARK   91  A    between atoms: _223  and  _225
REMARK   92  A    between atoms: _225  and  _226
REMARK   93  A    between atoms: _225  and  _228
REMARK   94  A    between atoms: _228  and  _229
REMARK   95  A    between atoms: _232  and  _234
REMARK   96  A    between atoms: _234  and  _235
REMARK   97  A    between atoms: _234  and  _237
REMARK   98  A    between atoms: _237  and  _238
REMARK   99  A    between atoms: _238  and  _239
REMARK  100  A    between atoms: _239  and  _240
REMARK  101  A    between atoms: _240  and  _241
REMARK  102  A    between atoms: _245  and  _247
REMARK  103  A    between atoms: _247  and  _248
REMARK  104  A    between atoms: _247  and  _250
REMARK  105  A    between atoms: _250  and  _251
REMARK  106  A    between atoms: _257  and  _259
REMARK  107  A    between atoms: _259  and  _260
REMARK  108  A    between atoms: _259  and  _262
REMARK  109  A    between atoms: _262  and  _263
REMARK  110  A    between atoms: _269  and  _271
REMARK  111  A    between atoms: _271  and  _272
REMARK  112  A    between atoms: _271  and  _274
REMARK  113  A    between atoms: _274  and  _275
REMARK  114  A    between atoms: _278  and  _280
REMARK  115  A    between atoms: _280  and  _281
REMARK  116  A    between atoms: _280  and  _283
REMARK  117  A    between atoms: _283  and  _284
REMARK  118  A    between atoms: _286  and  _288
REMARK  119  A    between atoms: _288  and  _289
REMARK  120  A    between atoms: _288  and  _291
REMARK  121  A    between atoms: _291  and  _292
REMARK  122  A    between atoms: _302  and  _304
REMARK  123  A    between atoms: _304  and  _305
REMARK  124  A    between atoms: _307  and  _309
REMARK  125  A    between atoms: _309  and  _310
REMARK  126  A    between atoms: _309  and  _312
REMARK  127  A    between atoms: _312  and  _313
REMARK  128  A    between atoms: _316  and  _318
REMARK  129  A    between atoms: _318  and  _319
REMARK  130  A    between atoms: _318  and  _321
REMARK  131  A    between atoms: _321  and  _322
REMARK  132  A    between atoms: _325  and  _327
REMARK  133  A    between atoms: _327  and  _328
REMARK  134  A    between atoms: _327  and  _330
REMARK  135  A    between atoms: _330  and  _331
REMARK  136  A    between atoms: _334  and  _336
REMARK  137  A    between atoms: _336  and  _337
REMARK  138  A    between atoms: _340  and  _342
REMARK  139  A    between atoms: _342  and  _343
REMARK  140  A    between atoms: _342  and  _345
REMARK  141  A    between atoms: _345  and  _346
REMARK  142  A    between atoms: _351  and  _352
REMARK  143  A    between atoms: _354  and  _356
REMARK  144  A    between atoms: _356  and  _357
REMARK  145  A    between atoms: _360  and  _362
REMARK  146  A    between atoms: _362  and  _363
REMARK  147  A    between atoms: _362  and  _365
REMARK  148  A    between atoms: _365  and  _366
REMARK  149  A    between atoms: _366  and  _367
REMARK  150  A    between atoms: _370  and  _372
REMARK  151  A    between atoms: _372  and  _373
REMARK  152  A    between atoms: _372  and  _375
REMARK  153  A    between atoms: _375  and  _376
REMARK  154  A    between atoms: _379  and  _381
REMARK  155  A    between atoms: _381  and  _382
REMARK  156  A    between atoms: _385  and  _387
REMARK  157  A    between atoms: _387  and  _388
REMARK  158  A    between atoms: _387  and  _390
REMARK  159  A    between atoms: _390  and  _391
REMARK  160  A    between atoms: _391  and  _392
REMARK  161  A    between atoms: _392  and  _393
REMARK  162  A    between atoms: _403  and  _404
REMARK  163  A    between atoms: _409  and  _411
REMARK  164  A    between atoms: _411  and  _412
REMARK  165  A    between atoms: _411  and  _414
REMARK  166  A    between atoms: _414  and  _415
REMARK  167  A    between atoms: _418  and  _420
REMARK  168  A    between atoms: _420  and  _421
REMARK  169  A    between atoms: _420  and  _423
REMARK  170  A    between atoms: _423  and  _424
REMARK  171  A    between atoms: _427  and  _429
REMARK  172  A    between atoms: _429  and  _430
REMARK  173  A    between atoms: _429  and  _432
REMARK  174  A    between atoms: _432  and  _433
REMARK  175  A    between atoms: _433  and  _434
REMARK  176  A    between atoms: _434  and  _435
REMARK  177  A    between atoms: _444  and  _446
REMARK  178  A    between atoms: _446  and  _447
REMARK  179  A    between atoms: _446  and  _449
REMARK  180  A    between atoms: _449  and  _450
REMARK  181  A    between atoms: _460  and  _462
REMARK  182  A    between atoms: _462  and  _463
REMARK  183  A    between atoms: _462  and  _465
REMARK  184  A    between atoms: _465  and  _466
REMARK  185  A    between atoms: _471  and  _472
REMARK  186  A    between atoms: _474  and  _476
REMARK  187  A    between atoms: _476  and  _477
REMARK  188  A    between atoms: _476  and  _479
REMARK  189  A    between atoms: _479  and  _480
REMARK  190  A    between atoms: _480  and  _481
REMARK  191  A    between atoms: _481  and  _482
REMARK  192  A    between atoms: _482  and  _483
REMARK  193  A    between atoms: _487  and  _489
REMARK  194  A    between atoms: _489  and  _490
REMARK  195  A    between atoms: _489  and  _492
REMARK  196  A    between atoms: _492  and  _493
REMARK  197  A    between atoms: _496  and  _498
REMARK  198  A    between atoms: _498  and  _499
REMARK  199  A    between atoms: _498  and  _501
REMARK  200  A    between atoms: _504  and  _506
REMARK  201  A    between atoms: _506  and  _507
REMARK  202  A    between atoms: _506  and  _509
REMARK  203  A    between atoms: _509  and  _510
REMARK  204  A    between atoms: _513  and  _515
REMARK  205  A    between atoms: _515  and  _516
REMARK  206  A    between atoms: _515  and  _518
REMARK  207  A    between atoms: _518  and  _519
REMARK  208  A    between atoms: _521  and  _523
REMARK  209  A    between atoms: _523  and  _524
REMARK  210  A    between atoms: _526  and  _528
REMARK  211  A    between atoms: _528  and  _529
REMARK  212  A    between atoms: _528  and  _531
REMARK  213  A    between atoms: _531  and  _532
REMARK  214  A    between atoms: _535  and  _537
REMARK  215  A    between atoms: _537  and  _538
REMARK  216  A    between atoms: _537  and  _540
REMARK  217  A    between atoms: _540  and  _541
REMARK  218  A    between atoms: _544  and  _546
REMARK  219  A    between atoms: _546  and  _547
REMARK  220  A    between atoms: _546  and  _549
REMARK  221  A    between atoms: _549  and  _550
REMARK  222  A    between atoms: _555  and  _557
REMARK  223  A    between atoms: _557  and  _558
REMARK  224  A    between atoms: _557  and  _560
REMARK  225  A    between atoms: _560  and  _561
REMARK  226  A    between atoms: _564  and  _566
REMARK  227  A    between atoms: _566  and  _567
REMARK  228  A    between atoms: _566  and  _569
REMARK  229  A    between atoms: _569  and  _570
REMARK  230  A    between atoms: _570  and  _571
REMARK  231  A    between atoms: _571  and  _572
REMARK  232  A    between atoms: _581  and  _583
REMARK  233  A    between atoms: _583  and  _584
REMARK  234  A    between atoms: _586  and  _588
REMARK  235  A    between atoms: _588  and  _589
REMARK  236  A    between atoms: _588  and  _591
REMARK  237  A    between atoms: _591  and  _592
REMARK  238  A    between atoms: _592  and  _593
REMARK  239  A    between atoms: _596  and  _598
REMARK  240  A    between atoms: _598  and  _599
REMARK  241  A    between atoms: _598  and  _601
REMARK  242  A    between atoms: _601  and  _602
REMARK  243  A    between atoms: _602  and  _603
REMARK  244  A    between atoms: _603  and  _604
REMARK  245  A    between atoms: _614  and  _615
REMARK  246  A    between atoms: _620  and  _622
REMARK  247  A    between atoms: _622  and  _623
REMARK  248  A    between atoms: _622  and  _625
REMARK  249  A    between atoms: _628  and  _630
REMARK  250  A    between atoms: _630  and  _631
REMARK  251  A    between atoms: _630  and  _633
REMARK  252  A    between atoms: _633  and  _634
REMARK  253  A    between atoms: _634  and  _635
REMARK  254  A    between atoms: _638  and  _640
REMARK  255  A    between atoms: _640  and  _641
REMARK  256  A    between atoms: _640  and  _643
REMARK  257  A    between atoms: _643  and  _644
REMARK  258  A    between atoms: _644  and  _645
REMARK  259  A    between atoms: _645  and  _646
REMARK  260  A    between atoms: _646  and  _647
REMARK  261  A    between atoms: _651  and  _653
REMARK  262  A    between atoms: _653  and  _654
REMARK  263  A    between atoms: _657  and  _659
REMARK  264  A    between atoms: _659  and  _660
REMARK  265  A    between atoms: _659  and  _662
REMARK  266  A    between atoms: _662  and  _663
REMARK  267  A    between atoms: _665  and  _667
REMARK  268  A    between atoms: _667  and  _668
REMARK  269  A    between atoms: _667  and  _670
REMARK  270  A    between atoms: _670  and  _671
REMARK  271  A    between atoms: _671  and  _672
REMARK  272  A    between atoms: _677  and  _679
REMARK  273  A    between atoms: _679  and  _680
REMARK  274  A    between atoms: _679  and  _682
REMARK  275  A    between atoms: _682  and  _683
REMARK  276  A    between atoms: _685  and  _687
REMARK  277  A    between atoms: _687  and  _688
REMARK  278  A    between atoms: _687  and  _690
REMARK  279  A    between atoms: _690  and  _691
REMARK  280  A    between atoms: _694  and  _696
REMARK  281  A    between atoms: _696  and  _697
REMARK  282  A    between atoms: _696  and  _699
REMARK  283  A    between atoms: _699  and  _700
REMARK  284  A    between atoms: _703  and  _705
REMARK  285  A    between atoms: _705  and  _706
REMARK  286  A    between atoms: _705  and  _708
REMARK  287  A    between atoms: _711  and  _713
REMARK  288  A    between atoms: _713  and  _714
REMARK  289  A    between atoms: _716  and  _718
REMARK  290  A    between atoms: _718  and  _719
REMARK  291  A    between atoms: _722  and  _724
REMARK  292  A    between atoms: _724  and  _725
REMARK  293  A    between atoms: _724  and  _727
REMARK                            x       y       z     vdW  Elec       q    Type
REMARK                         _______ _______ _______ _____ _____    ______ ____
ROOT
ATOM      1  CA  ALA A   1       7.943  28.679  30.699  0.00  0.00    +0.133 C 
ATOM      2  CB  ALA A   1       7.561  30.043  30.175  0.00  0.00    +0.027 C 
ENDROOT
BRANCH   1   3
ATOM      3  N   ALA A   1       6.734  27.955  31.073  0.00  0.00    -0.239 NA
ATOM      4  H   ALA A   1       5.942  28.481  31.494  0.00  0.00    +0.142 HD
ENDBRANCH   1   3
BRANCH   1   5
ATOM      5  C   ALA A   1       9.061  28.809  31.744  0.00  0.00    +0.224 C 
ATOM      6  O   ALA A   1       9.754  29.830  31.804  0.00  0.00    -0.287 OA
ENDBRANCH   1   5
TORSDOF 2
REMARK  Name = ../refined-set-2016/1m4h/1m4h_pocket.pdb
REMARK  293 active torsions:
REMARK  status: ('A' for Active; 'I' for Inactive)
REMARK    1  A    between atoms: _1  and  _3
REMARK    2  A    between atoms: _3  and  _4
REMARK    3  A    between atoms: _3  and  _6
REMARK    4  A    between atoms: _6  and  _7
REMARK    5  A    between atoms: _7  and  _8
REMARK    6  A    between atoms: _8  and  _9
REMARK    7  A    between atoms: _9  and  _10
REMARK    8  A    between atoms: _14  and  _16
REMARK    9  A    between atoms: _16  and  _17
REMARK   10  A    between atoms: _16  and  _19
REMARK   11  A    between atoms: _19  and  _20
REMARK   12  A    between atoms: _22  and  _24
REMARK   13  A    between atoms: _24  and  _25
REMARK   14  A    between atoms: _27  and  _29
REMARK   15  A    between atoms: _29  and  _30
REMARK   16  A    between atoms: _29  and  _32
REMARK   17  A    between atoms: _32  and  _33
REMARK   18  A    between atoms: _33  and  _34
REMARK   19  A    between atoms: _39  and  _41
REMARK   20  A    between atoms: _41  and  _42
REMARK   21  A    between atoms: _44  and  _46
REMARK   22  A    between atoms: _46  and  _47
REMARK   23  A    between atoms: _46  and  _49
REMARK   24  A    between atoms: _49  and  _50
REMARK   25  A    between atoms: _55  and  _56
REMARK   26  A    between atoms: _58  and  _60
REMARK   27  A    between atoms: _60  and  _61
REMARK   28  A    between atoms: _60  and  _63
REMARK   29  A    between atoms: _63  and  _64
REMARK   30  A    between atoms: _67  and  _69
REMARK   31  A    between atoms: _69  and  _70
REMARK   32  A    between atoms: _69  and  _72
REMARK   33  A    between atoms: _75  and  _77
REMARK   34  A    between atoms: _77  and  _78
REMARK   35  A    between atoms: _77  and  _80
REMARK   36  A    between atoms: _80  and  _81
REMARK   37  A    between atoms: _84  and  _86
REMARK   38  A    between atoms: _86  and  _87
REMARK   39  A    between atoms: _86  and  _89
REMARK   40  A    between atoms: _89  and  _90
REMARK   41  A    between atoms: _93  and  _95
REMARK   42  A    between atoms: _95  and  _96
REMARK   43  A    between atoms: _98  and  _100
REMARK   44  A    between atoms: _100  and  _101
REMARK   45  A    between atoms: _100  and  _103
REMARK   46  A    between atoms: _103  and  _104
REMARK   47  A    between atoms: _106  and  _108
REMARK   48  A    between atoms: _108  and  _109
REMARK   49  A    between atoms: _108  and  _111
REMARK   50  A    between atoms: _111  and  _112
REMARK   51  A    between atoms: _114  and  _116
REMARK   52  A    between atoms: _116  and  _117
REMARK   53  A    between atoms: _116  and  _119
REMARK   54  A    between atoms: _119  and  _120
REMARK   55  A    between atoms: _125  and  _127
REMARK   56  A    between atoms: _127  and  _128
REMARK   57  A    between atoms: _127  and  _130
REMARK   58  A    between atoms: _130  and  _131
REMARK   59  A    between atoms: _136  and  _137
REMARK   60  A    between atoms: _139  and  _141
REMARK   61  A    between atoms: _141  and  _142
REMARK   62  A    between atoms: _141  and  _144
REMARK   63  A    between atoms: _148  and  _149
REMARK   64  A    between atoms: _154  and  _156
REMARK   65  A    between atoms: _156  and  _157
REMARK   66  A    between atoms: _156  and  _159
REMARK   67  A    between atoms: _159  and  _160
REMARK   68  A    between atoms: _165  and  _166
REMARK   69  A    between atoms: _168  and  _170
REMARK   70  A    between atoms: _170  and  _171
REMARK   71  A    between atoms: _170  and  _173
REMARK   72  A    between atoms: _173  and  _174
REMARK   73  A    between atoms: _177  and  _179
REMARK   74  A    between atoms: _179  and  _180
REMARK   75  A    between atoms: _179  and  _182
REMARK   76  A    between atoms: _182  and  _183
REMARK   77  A    between atoms: _183  and  _184
REMARK   78  A    between atoms: _189  and  _191
REMARK   79  A    between atoms: _191  and  _192
REMARK   80  A    between atoms: _194  and  _196
REMARK   81  A    between atoms: _196  and  _197
REMARK   82  A    between atoms: _196  and  _199
REMARK   83  A    between atoms: _199  and  _200
REMARK   84  A    between atoms: _200  and  _201
REMARK   85  A    between atoms: _201  and  _202
REMARK   86  A    between atoms: _202  and  _203
REMARK   87  A    between atoms: _207  and  _209
REMARK   88  A    between atoms: _209  and  _210
REMARK   89  A    between atoms: _209  and  _212
REMARK   90  A    between atoms: _212  and  _213
REMARK   91  A    between atoms: _223  and  _225
REMARK   92  A    between atoms: _225  and  _226
REMARK   93  A    between atoms: _225  and  _228
REMARK   94  A    between atoms: _228  and  _229
REMARK   95  A    between atoms: _232  and  _234
REMARK   96  A    between atoms: _234  and  _235
REMARK   97  A    between atoms: _234  and  _237
REMARK   98  A    between atoms: _237  and  _238
REMARK   99  A    between atoms: _238  and  _239
REMARK  100  A    between atoms: _239  and  _240
REMARK  101  A    between atoms: _240  and  _241
REMARK  102  A    between atoms: _245  and  _247
REMARK  103  A    between atoms: _247  and  _248
REMARK  104  A    between atoms: _247  and  _250
REMARK  105  A    between atoms: _250  and  _251
REMARK  106  A    between atoms: _257  and  _259
REMARK  107  A    between atoms: _259  and  _260
REMARK  108  A    between atoms: _259  and  _262
REMARK  109  A    between atoms: _262  and  _263
REMARK  110  A    between atoms: _269  and  _271
REMARK  111  A    between atoms: _271  and  _272
REMARK  112  A    between atoms: _271  and  _274
REMARK  113  A    between atoms: _274  and  _275
REMARK  114  A    between atoms: _278  and  _280
REMARK  115  A    between atoms: _280  and  _281
REMARK  116  A    between atoms: _280  and  _283
REMARK  117  A    between atoms: _283  and  _284
REMARK  118  A    between atoms: _286  and  _288
REMARK  119  A    between atoms: _288  and  _289
REMARK  120  A    between atoms: _288  and  _291
REMARK  121  A    between atoms: _291  and  _292
REMARK  122  A    between atoms: _302  and  _304
REMARK  123  A    between atoms: _304  and  _305
REMARK  124  A    between atoms: _307  and  _309
REMARK  125  A    between atoms: _309  and  _310
REMARK  126  A    between atoms: _309  and  _312
REMARK  127  A    between atoms: _312  and  _313
REMARK  128  A    between atoms: _316  and  _318
REMARK  129  A    between atoms: _318  and  _319
REMARK  130  A    between atoms: _318  and  _321
REMARK  131  A    between atoms: _321  and  _322
REMARK  132  A    between atoms: _325  and  _327
REMARK  133  A    between atoms: _327  and  _328
REMARK  134  A    between atoms: _327  and  _330
REMARK  135  A    between atoms: _330  and  _331
REMARK  136  A    between atoms: _334  and  _336
REMARK  137  A    between atoms: _336  and  _337
REMARK  138  A    between atoms: _340  and  _342
REMARK  139  A    between atoms: _342  and  _343
REMARK  140  A    between atoms: _342  and  _345
REMARK  141  A    between atoms: _345  and  _346
REMARK  142  A    between atoms: _351  and  _352
REMARK  143  A    between atoms: _354  and  _356
REMARK  144  A    between atoms: _356  and  _357
REMARK  145  A    between atoms: _360  and  _362
REMARK  146  A    between atoms: _362  and  _363
REMARK  147  A    between atoms: _362  and  _365
REMARK  148  A    between atoms: _365  and  _366
REMARK  149  A    between atoms: _366  and  _367
REMARK  150  A    between atoms: _370  and  _372
REMARK  151  A    between atoms: _372  and  _373
REMARK  152  A    between atoms: _372  and  _375
REMARK  153  A    between atoms: _375  and  _376
REMARK  154  A    between atoms: _379  and  _381
REMARK  155  A    between atoms: _381  and  _382
REMARK  156  A    between atoms: _385  and  _387
REMARK  157  A    between atoms: _387  and  _388
REMARK  158  A    between atoms: _387  and  _390
REMARK  159  A    between atoms: _390  and  _391
REMARK  160  A    between atoms: _391  and  _392
REMARK  161  A    between atoms: _392  and  _393
REMARK  162  A    between atoms: _403  and  _404
REMARK  163  A    between atoms: _409  and  _411
REMARK  164  A    between atoms: _411  and  _412
REMARK  165  A    between atoms: _411  and  _414
REMARK  166  A    between atoms: _414  and  _415
REMARK  167  A    between atoms: _418  and  _420
REMARK  168  A    between atoms: _420  and  _421
REMARK  169  A    between atoms: _420  and  _423
REMARK  170  A    between atoms: _423  and  _424
REMARK  171  A    between atoms: _427  and  _429
REMARK  172  A    between atoms: _429  and  _430
REMARK  173  A    between atoms: _429  and  _432
REMARK  174  A    between atoms: _432  and  _433
REMARK  175  A    between atoms: _433  and  _434
REMARK  176  A    between atoms: _434  and  _435
REMARK  177  A    between atoms: _444  and  _446
REMARK  178  A    between atoms: _446  and  _447
REMARK  179  A    between atoms: _446  and  _449
REMARK  180  A    between atoms: _449  and  _450
REMARK  181  A    between atoms: _460  and  _462
REMARK  182  A    between atoms: _462  and  _463
REMARK  183  A    between atoms: _462  and  _465
REMARK  184  A    between atoms: _465  and  _466
REMARK  185  A    between atoms: _471  and  _472
REMARK  186  A    between atoms: _474  and  _476
REMARK  187  A    between atoms: _476  and  _477
REMARK  188  A    between atoms: _476  and  _479
REMARK  189  A    between atoms: _479  and  _480
REMARK  190  A    between atoms: _480  and  _481
REMARK  191  A    between atoms: _481  and  _482
REMARK  192  A    between atoms: _482  and  _483
REMARK  193  A    between atoms: _487  and  _489
REMARK  194  A    between atoms: _489  and  _490
REMARK  195  A    between atoms: _489  and  _492
REMARK  196  A    between atoms: _492  and  _493
REMARK  197  A    between atoms: _496  and  _498
REMARK  198  A    between atoms: _498  and  _499
REMARK  199  A    between atoms: _498  and  _501
REMARK  200  A    between atoms: _504  and  _506
REMARK  201  A    between atoms: _506  and  _507
REMARK  202  A    between atoms: _506  and  _509
REMARK  203  A    between atoms: _509  and  _510
REMARK  204  A    between atoms: _513  and  _515
REMARK  205  A    between atoms: _515  and  _516
REMARK  206  A    between atoms: _515  and  _518
REMARK  207  A    between atoms: _518  and  _519
REMARK  208  A    between atoms: _521  and  _523
REMARK  209  A    between atoms: _523  and  _524
REMARK  210  A    between atoms: _526  and  _528
REMARK  211  A    between atoms: _528  and  _529
REMARK  212  A    between atoms: _528  and  _531
REMARK  213  A    between atoms: _531  and  _532
REMARK  214  A    between atoms: _535  and  _537
REMARK  215  A    between atoms: _537  and  _538
REMARK  216  A    between atoms: _537  and  _540
REMARK  217  A    between atoms: _540  and  _541
REMARK  218  A    between atoms: _544  and  _546
REMARK  219  A    between atoms: _546  and  _547
REMARK  220  A    between atoms: _546  and  _549
REMARK  221  A    between atoms: _549  and  _550
REMARK  222  A    between atoms: _555  and  _557
REMARK  223  A    between atoms: _557  and  _558
REMARK  224  A    between atoms: _557  and  _560
REMARK  225  A    between atoms: _560  and  _561
REMARK  226  A    between atoms: _564  and  _566
REMARK  227  A    between atoms: _566  and  _567
REMARK  228  A    between atoms: _566  and  _569
REMARK  229  A    between atoms: _569  and  _570
REMARK  230  A    between atoms: _570  and  _571
REMARK  231  A    between atoms: _571  and  _572
REMARK  232  A    between atoms: _581  and  _583
REMARK  233  A    between atoms: _583  and  _584
REMARK  234  A    between atoms: _586  and  _588
REMARK  235  A    between atoms: _588  and  _589
REMARK  236  A    between atoms: _588  and  _591
REMARK  237  A    between atoms: _591  and  _592
REMARK  238  A    between atoms: _592  and  _593
REMARK  239  A    between atoms: _596  and  _598
REMARK  240  A    between atoms: _598  and  _599
REMARK  241  A    between atoms: _598  and  _601
REMARK  242  A    between atoms: _601  and  _602
REMARK  243  A    between atoms: _602  and  _603
REMARK  244  A    between atoms: _603  and  _604
REMARK  245  A    between atoms: _614  and  _615
REMARK  246  A    between atoms: _620  and  _622
REMARK  247  A    between atoms: _622  and  _623
REMARK  248  A    between atoms: _622  and  _625
REMARK  249  A    between atoms: _628  and  _630
REMARK  250  A    between atoms: _630  and  _631
REMARK  251  A    between atoms: _630  and  _633
REMARK  252  A    between atoms: _633  and  _634
REMARK  253  A    between atoms: _634  and  _635
REMARK  254  A    between atoms: _638  and  _640
REMARK  255  A    between atoms: _640  and  _641
REMARK  256  A    between atoms: _640  and  _643
REMARK  257  A    between atoms: _643  and  _644
REMARK  258  A    between atoms: _644  and  _645
REMARK  259  A    between atoms: _645  and  _646
REMARK  260  A    between atoms: _646  and  _647
REMARK  261  A    between atoms: _651  and  _653
REMARK  262  A    between atoms: _653  and  _654
REMARK  263  A    between atoms: _657  and  _659
REMARK  264  A    between atoms: _659  and  _660
REMARK  265  A    between atoms: _659  and  _662
REMARK  266  A    between atoms: _662  and  _663
REMARK  267  A    between atoms: _665  and  _667
REMARK  268  A    between atoms: _667  and  _668
REMARK  269  A    between atoms: _667  and  _670
REMARK  270  A    between atoms: _670  and  _671
REMARK  271  A    between atoms: _671  and  _672
REMARK  272  A    between atoms: _677  and  _679
REMARK  273  A    between atoms: _679  and  _680
REMARK  274  A    between atoms: _679  and  _682
REMARK  275  A    between atoms: _682  and  _683
REMARK  276  A    between atoms: _685  and  _687
REMARK  277  A    between atoms: _687  and  _688
REMARK  278  A    between atoms: _687  and  _690
REMARK  279  A    between atoms: _690  and  _691
REMARK  280  A    between atoms: _694  and  _696
REMARK  281  A    between atoms: _696  and  _697
REMARK  282  A    between atoms: _696  and  _699
REMARK  283  A    between atoms: _699  and  _700
REMARK  284  A    between atoms: _703  and  _705
REMARK  285  A    between atoms: _705  and  _706
REMARK  286  A    between atoms: _705  and  _708
REMARK  287  A    between atoms: _711  and  _713
REMARK  288  A    between atoms: _713  and  _714
REMARK  289  A    between atoms: _716  and  _718
REMARK  290  A    between atoms: _718  and  _719
REMARK  291  A    between atoms: _722  and  _724
REMARK  292  A    between atoms: _724  and  _725
REMARK  293  A    between atoms: _724  and  _727
REMARK                            x       y       z     vdW  Elec       q    Type
REMARK                         _______ _______ _______ _____ _____    ______ ____
ROOT
ATOM      1  CA  GLN A   2      16.278  23.902  34.134  0.00  0.00    +0.149 C 
ENDROOT
BRANCH   1   4
ATOM      2  C   SER A   1      14.371  25.204  33.446  0.00  0.00    +0.241 C 
ATOM      3  O   SER A   1      14.840  26.231  33.941  0.00  0.00    -0.274 OA
ATOM      4  N   GLN A   2      14.996  24.034  33.469  0.00  0.00    -0.297 N 
ATOM      5  H   GLN A   2      14.565  23.208  33.008  0.00  0.00    +0.150 HD
BRANCH   2   6
ATOM      6  CA  SER A   1      13.026  25.222  32.775  0.00  0.00    +0.174 C 
BRANCH   6   7
ATOM      7  N   SER A   1      12.322  26.448  33.105  0.00  0.00    -0.236 NA
ATOM      8  H   SER A   1      12.846  27.339  33.217  0.00  0.00    +0.142 HD
ENDBRANCH   6   7
BRANCH   6   9
ATOM      9  CB  SER A   1      13.180  25.089  31.258  0.00  0.00    +0.163 C 
BRANCH   9  10
ATOM     10  OG  SER A   1      13.935  26.152  30.716  0.00  0.00    -0.380 OA
ATOM     11  H   SER A   1      14.014  26.033  29.736  0.00  0.00    +0.211 HD
ENDBRANCH   9  10
ENDBRANCH   6   9
ENDBRANCH   2   6
ENDBRANCH   1   4
BRANCH   1  12
ATOM     12  C   GLN A   2      17.445  24.423  33.330  0.00  0.00    +0.241 C 
ATOM     13  N   SER A   3      18.558  24.612  34.024  0.00  0.00    -0.296 N 
ATOM     14  H   SER A   3      18.562  24.382  35.038  0.00  0.00    +0.150 HD
ATOM     15  O   GLN A   2      17.355  24.625  32.121  0.00  0.00    -0.273 OA
BRANCH  13  16
ATOM     16  CA  SER A   3      19.767  25.127  33.422  0.00  0.00    +0.166 C 
BRANCH  16  17
ATOM     17  CB  SER A   3      20.986  24.495  34.073  0.00  0.00    +0.229 C 
ATOM     18  OG  SER A   3      20.954  24.114  35.246  0.00  0.00    -0.286 OA
ENDBRANCH  16  17
BRANCH  16  19
ATOM     19  C   SER A   3      19.831  26.649  33.616  0.00  0.00    +0.165 C 
BRANCH  19  20
ATOM     20  O   SER A   3      21.043  27.198  33.107  0.00  0.00    -0.380 OA
ATOM     21  H   SER A   3      21.046  28.178  33.250  0.00  0.00    +0.211 HD
ENDBRANCH  19  20
ENDBRANCH  16  19
ENDBRANCH  13  16
ENDBRANCH   1  12
BRANCH   1  22
ATOM     22  CB  GLN A   2      16.531  22.445  34.523  0.00  0.00    +0.039 C 
BRANCH  22  23
ATOM     23  CG  GLN A   2      16.663  21.498  33.358  0.00  0.00    +0.087 C 
BRANCH  23  24
ATOM     24  CD  GLN A   2      16.741  20.055  33.823  0.00  0.00    +0.219 C 
ATOM     25  OE1 GLN A   2      17.786  19.588  34.282  0.00  0.00    -0.275 OA
ATOM     26  NE2 GLN A   2      15.616  19.344  33.727  0.00  0.00    -0.329 N 
ATOM     27 HE21 GLN A   2      15.597  18.354  34.046  0.00  0.00    +0.145 HD
ATOM     28 HE22 GLN A   2      14.758  19.779  33.333  0.00  0.00    +0.145 HD
ENDBRANCH  23  24
ENDBRANCH  22  23
ENDBRANCH   1  22
TORSDOF 13
REMARK  Name = ../refined-set-2016/1m4h/1m4h_pocket.pdb
REMARK  293 active torsions:
REMARK  status: ('A' for Active; 'I' for Inactive)
REMARK    1  A    between atoms: _1  and  _3
REMARK    2  A    between atoms: _3  and  _4
REMARK    3  A    between atoms: _3  and  _6
REMARK    4  A    between atoms: _6  and  _7
REMARK    5  A    between atoms: _7  and  _8
REMARK    6  A    between atoms: _8  and  _9
REMARK    7  A    between atoms: _9  and  _10
REMARK    8  A    between atoms: _14  and  _16
REMARK    9  A    between atoms: _16  and  _17
REMARK   10  A    between atoms: _16  and  _19
REMARK   11  A    between atoms: _19  and  _20
REMARK   12  A    between atoms: _22  and  _24
REMARK   13  A    between atoms: _24  and  _25
REMARK   14  A    between atoms: _27  and  _29
REMARK   15  A    between atoms: _29  and  _30
REMARK   16  A    between atoms: _29  and  _32
REMARK   17  A    between atoms: _32  and  _33
REMARK   18  A    between atoms: _33  and  _34
REMARK   19  A    between atoms: _39  and  _41
REMARK   20  A    between atoms: _41  and  _42
REMARK   21  A    between atoms: _44  and  _46
REMARK   22  A    between atoms: _46  and  _47
REMARK   23  A    between atoms: _46  and  _49
REMARK   24  A    between atoms: _49  and  _50
REMARK   25  A    between atoms: _55  and  _56
REMARK   26  A    between atoms: _58  and  _60
REMARK   27  A    between atoms: _60  and  _61
REMARK   28  A    between atoms: _60  and  _63
REMARK   29  A    between atoms: _63  and  _64
REMARK   30  A    between atoms: _67  and  _69
REMARK   31  A    between atoms: _69  and  _70
REMARK   32  A    between atoms: _69  and  _72
REMARK   33  A    between atoms: _75  and  _77
REMARK   34  A    between atoms: _77  and  _78
REMARK   35  A    between atoms: _77  and  _80
REMARK   36  A    between atoms: _80  and  _81
REMARK   37  A    between atoms: _84  and  _86
REMARK   38  A    between atoms: _86  and  _87
REMARK   39  A    between atoms: _86  and  _89
REMARK   40  A    between atoms: _89  and  _90
REMARK   41  A    between atoms: _93  and  _95
REMARK   42  A    between atoms: _95  and  _96
REMARK   43  A    between atoms: _98  and  _100
REMARK   44  A    between atoms: _100  and  _101
REMARK   45  A    between atoms: _100  and  _103
REMARK   46  A    between atoms: _103  and  _104
REMARK   47  A    between atoms: _106  and  _108
REMARK   48  A    between atoms: _108  and  _109
REMARK   49  A    between atoms: _108  and  _111
REMARK   50  A    between atoms: _111  and  _112
REMARK   51  A    between atoms: _114  and  _116
REMARK   52  A    between atoms: _116  and  _117
REMARK   53  A    between atoms: _116  and  _119
REMARK   54  A    between atoms: _119  and  _120
REMARK   55  A    between atoms: _125  and  _127
REMARK   56  A    between atoms: _127  and  _128
REMARK   57  A    between atoms: _127  and  _130
REMARK   58  A    between atoms: _130  and  _131
REMARK   59  A    between atoms: _136  and  _137
REMARK   60  A    between atoms: _139  and  _141
REMARK   61  A    between atoms: _141  and  _142
REMARK   62  A    between atoms: _141  and  _144
REMARK   63  A    between atoms: _148  and  _149
REMARK   64  A    between atoms: _154  and  _156
REMARK   65  A    between atoms: _156  and  _157
REMARK   66  A    between atoms: _156  and  _159
REMARK   67  A    between atoms: _159  and  _160
REMARK   68  A    between atoms: _165  and  _166
REMARK   69  A    between atoms: _168  and  _170
REMARK   70  A    between atoms: _170  and  _171
REMARK   71  A    between atoms: _170  and  _173
REMARK   72  A    between atoms: _173  and  _174
REMARK   73  A    between atoms: _177  and  _179
REMARK   74  A    between atoms: _179  and  _180
REMARK   75  A    between atoms: _179  and  _182
REMARK   76  A    between atoms: _182  and  _183
REMARK   77  A    between atoms: _183  and  _184
REMARK   78  A    between atoms: _189  and  _191
REMARK   79  A    between atoms: _191  and  _192
REMARK   80  A    between atoms: _194  and  _196
REMARK   81  A    between atoms: _196  and  _197
REMARK   82  A    between atoms: _196  and  _199
REMARK   83  A    between atoms: _199  and  _200
REMARK   84  A    between atoms: _200  and  _201
REMARK   85  A    between atoms: _201  and  _202
REMARK   86  A    between atoms: _202  and  _203
REMARK   87  A    between atoms: _207  and  _209
REMARK   88  A    between atoms: _209  and  _210
REMARK   89  A    between atoms: _209  and  _212
REMARK   90  A    between atoms: _212  and  _213
REMARK   91  A    between atoms: _223  and  _225
REMARK   92  A    between atoms: _225  and  _226
REMARK   93  A    between atoms: _225  and  _228
REMARK   94  A    between atoms: _228  and  _229
REMARK   95  A    between atoms: _232  and  _234
REMARK   96  A    between atoms: _234  and  _235
REMARK   97  A    between atoms: _234  and  _237
REMARK   98  A    between atoms: _237  and  _238
REMARK   99  A    between atoms: _238  and  _239
REMARK  100  A    between atoms: _239  and  _240
REMARK  101  A    between atoms: _240  and  _241
REMARK  102  A    between atoms: _245  and  _247
REMARK  103  A    between atoms: _247  and  _248
REMARK  104  A    between atoms: _247  and  _250
REMARK  105  A    between atoms: _250  and  _251
REMARK  106  A    between atoms: _257  and  _259
REMARK  107  A    between atoms: _259  and  _260
REMARK  108  A    between atoms: _259  and  _262
REMARK  109  A    between atoms: _262  and  _263
REMARK  110  A    between atoms: _269  and  _271
REMARK  111  A    between atoms: _271  and  _272
REMARK  112  A    between atoms: _271  and  _274
REMARK  113  A    between atoms: _274  and  _275
REMARK  114  A    between atoms: _278  and  _280
REMARK  115  A    between atoms: _280  and  _281
REMARK  116  A    between atoms: _280  and  _283
REMARK  117  A    between atoms: _283  and  _284
REMARK  118  A    between atoms: _286  and  _288
REMARK  119  A    between atoms: _288  and  _289
REMARK  120  A    between atoms: _288  and  _291
REMARK  121  A    between atoms: _291  and  _292
REMARK  122  A    between atoms: _302  and  _304
REMARK  123  A    between atoms: _304  and  _305
REMARK  124  A    between atoms: _307  and  _309
REMARK  125  A    between atoms: _309  and  _310
REMARK  126  A    between atoms: _309  and  _312
REMARK  127  A    between atoms: _312  and  _313
REMARK  128  A    between atoms: _316  and  _318
REMARK  129  A    between atoms: _318  and  _319
REMARK  130  A    between atoms: _318  and  _321
REMARK  131  A    between atoms: _321  and  _322
REMARK  132  A    between atoms: _325  and  _327
REMARK  133  A    between atoms: _327  and  _328
REMARK  134  A    between atoms: _327  and  _330
REMARK  135  A    between atoms: _330  and  _331
REMARK  136  A    between atoms: _334  and  _336
REMARK  137  A    between atoms: _336  and  _337
REMARK  138  A    between atoms: _340  and  _342
REMARK  139  A    between atoms: _342  and  _343
REMARK  140  A    between atoms: _342  and  _345
REMARK  141  A    between atoms: _345  and  _346
REMARK  142  A    between atoms: _351  and  _352
REMARK  143  A    between atoms: _354  and  _356
REMARK  144  A    between atoms: _356  and  _357
REMARK  145  A    between atoms: _360  and  _362
REMARK  146  A    between atoms: _362  and  _363
REMARK  147  A    between atoms: _362  and  _365
REMARK  148  A    between atoms: _365  and  _366
REMARK  149  A    between atoms: _366  and  _367
REMARK  150  A    between atoms: _370  and  _372
REMARK  151  A    between atoms: _372  and  _373
REMARK  152  A    between atoms: _372  and  _375
REMARK  153  A    between atoms: _375  and  _376
REMARK  154  A    between atoms: _379  and  _381
REMARK  155  A    between atoms: _381  and  _382
REMARK  156  A    between atoms: _385  and  _387
REMARK  157  A    between atoms: _387  and  _388
REMARK  158  A    between atoms: _387  and  _390
REMARK  159  A    between atoms: _390  and  _391
REMARK  160  A    between atoms: _391  and  _392
REMARK  161  A    between atoms: _392  and  _393
REMARK  162  A    between atoms: _403  and  _404
REMARK  163  A    between atoms: _409  and  _411
REMARK  164  A    between atoms: _411  and  _412
REMARK  165  A    between atoms: _411  and  _414
REMARK  166  A    between atoms: _414  and  _415
REMARK  167  A    between atoms: _418  and  _420
REMARK  168  A    between atoms: _420  and  _421
REMARK  169  A    between atoms: _420  and  _423
REMARK  170  A    between atoms: _423  and  _424
REMARK  171  A    between atoms: _427  and  _429
REMARK  172  A    between atoms: _429  and  _430
REMARK  173  A    between atoms: _429  and  _432
REMARK  174  A    between atoms: _432  and  _433
REMARK  175  A    between atoms: _433  and  _434
REMARK  176  A    between atoms: _434  and  _435
REMARK  177  A    between atoms: _444  and  _446
REMARK  178  A    between atoms: _446  and  _447
REMARK  179  A    between atoms: _446  and  _449
REMARK  180  A    between atoms: _449  and  _450
REMARK  181  A    between atoms: _460  and  _462
REMARK  182  A    between atoms: _462  and  _463
REMARK  183  A    between atoms: _462  and  _465
REMARK  184  A    between atoms: _465  and  _466
REMARK  185  A    between atoms: _471  and  _472
REMARK  186  A    between atoms: _474  and  _476
REMARK  187  A    between atoms: _476  and  _477
REMARK  188  A    between atoms: _476  and  _479
REMARK  189  A    between atoms: _479  and  _480
REMARK  190  A    between atoms: _480  and  _481
REMARK  191  A    between atoms: _481  and  _482
REMARK  192  A    between atoms: _482  and  _483
REMARK  193  A    between atoms: _487  and  _489
REMARK  194  A    between atoms: _489  and  _490
REMARK  195  A    between atoms: _489  and  _492
REMARK  196  A    between atoms: _492  and  _493
REMARK  197  A    between atoms: _496  and  _498
REMARK  198  A    between atoms: _498  and  _499
REMARK  199  A    between atoms: _498  and  _501
REMARK  200  A    between atoms: _504  and  _506
REMARK  201  A    between atoms: _506  and  _507
REMARK  202  A    between atoms: _506  and  _509
REMARK  203  A    between atoms: _509  and  _510
REMARK  204  A    between atoms: _513  and  _515
REMARK  205  A    between atoms: _515  and  _516
REMARK  206  A    between atoms: _515  and  _518
REMARK  207  A    between atoms: _518  and  _519
REMARK  208  A    between atoms: _521  and  _523
REMARK  209  A    between atoms: _523  and  _524
REMARK  210  A    between atoms: _526  and  _528
REMARK  211  A    between atoms: _528  and  _529
REMARK  212  A    between atoms: _528  and  _531
REMARK  213  A    between atoms: _531  and  _532
REMARK  214  A    between atoms: _535  and  _537
REMARK  215  A    between atoms: _537  and  _538
REMARK  216  A    between atoms: _537  and  _540
REMARK  217  A    between atoms: _540  and  _541
REMARK  218  A    between atoms: _544  and  _546
REMARK  219  A    between atoms: _546  and  _547
REMARK  220  A    between atoms: _546  and  _549
REMARK  221  A    between atoms: _549  and  _550
REMARK  222  A    between atoms: _555  and  _557
REMARK  223  A    between atoms: _557  and  _558
REMARK  224  A    between atoms: _557  and  _560
REMARK  225  A    between atoms: _560  and  _561
REMARK  226  A    between atoms: _564  and  _566
REMARK  227  A    between atoms: _566  and  _567
REMARK  228  A    between atoms: _566  and  _569
REMARK  229  A    between atoms: _569  and  _570
REMARK  230  A    between atoms: _570  and  _571
REMARK  231  A    between atoms: _571  and  _572
REMARK  232  A    between atoms: _581  and  _583
REMARK  233  A    between atoms: _583  and  _584
REMARK  234  A    between atoms: _586  and  _588
REMARK  235  A    between atoms: _588  and  _589
REMARK  236  A    between atoms: _588  and  _591
REMARK  237  A    between atoms: _591  and  _592
REMARK  238  A    between atoms: _592  and  _593
REMARK  239  A    between atoms: _596  and  _598
REMARK  240  A    between atoms: _598  and  _599
REMARK  241  A    between atoms: _598  and  _601
REMARK  242  A    between atoms: _601  and  _602
REMARK  243  A    between atoms: _602  and  _603
REMARK  244  A    between atoms: _603  and  _604
REMARK  245  A    between atoms: _614  and  _615
REMARK  246  A    between atoms: _620  and  _622
REMARK  247  A    between atoms: _622  and  _623
REMARK  248  A    between atoms: _622  and  _625
REMARK  249  A    between atoms: _628  and  _630
REMARK  250  A    between atoms: _630  and  _631
REMARK  251  A    between atoms: _630  and  _633
REMARK  252  A    between atoms: _633  and  _634
REMARK  253  A    between atoms: _634  and  _635
REMARK  254  A    between atoms: _638  and  _640
REMARK  255  A    between atoms: _640  and  _641
REMARK  256  A    between atoms: _640  and  _643
REMARK  257  A    between atoms: _643  and  _644
REMARK  258  A    between atoms: _644  and  _645
REMARK  259  A    between atoms: _645  and  _646
REMARK  260  A    between atoms: _646  and  _647
REMARK  261  A    between atoms: _651  and  _653
REMARK  262  A    between atoms: _653  and  _654
REMARK  263  A    between atoms: _657  and  _659
REMARK  264  A    between atoms: _659  and  _660
REMARK  265  A    between atoms: _659  and  _662
REMARK  266  A    between atoms: _662  and  _663
REMARK  267  A    between atoms: _665  and  _667
REMARK  268  A    between atoms: _667  and  _668
REMARK  269  A    between atoms: _667  and  _670
REMARK  270  A    between atoms: _670  and  _671
REMARK  271  A    between atoms: _671  and  _672
REMARK  272  A    between atoms: _677  and  _679
REMARK  273  A    between atoms: _679  and  _680
REMARK  274  A    between atoms: _679  and  _682
REMARK  275  A    between atoms: _682  and  _683
REMARK  276  A    between atoms: _685  and  _687
REMARK  277  A    between atoms: _687  and  _688
REMARK  278  A    between atoms: _687  and  _690
REMARK  279  A    between atoms: _690  and  _691
REMARK  280  A    between atoms: _694  and  _696
REMARK  281  A    between atoms: _696  and  _697
REMARK  282  A    between atoms: _696  and  _699
REMARK  283  A    between atoms: _699  and  _700
REMARK  284  A    between atoms: _703  and  _705
REMARK  285  A    between atoms: _705  and  _706
REMARK  286  A    between atoms: _705  and  _708
REMARK  287  A    between atoms: _711  and  _713
REMARK  288  A    between atoms: _713  and  _714
REMARK  289  A    between atoms: _716  and  _718
REMARK  290  A    between atoms: _718  and  _719
REMARK  291  A    between atoms: _722  and  _724
REMARK  292  A    between atoms: _724  and  _725
REMARK  293  A    between atoms: _724  and  _727
REMARK                            x       y       z     vdW  Elec       q    Type
REMARK                         _______ _______ _______ _____ _____    ______ ____
ROOT
ATOM      1  CA  THR A   1      24.608  27.376  33.286  0.00  0.00    +0.160 C 
ENDROOT
BRANCH   1   2
ATOM      2  N   THR A   1      23.777  26.181  33.401  0.00  0.00    -0.237 NA
ATOM      3  H   THR A   1      22.752  26.257  33.239  0.00  0.00    +0.142 HD
ENDBRANCH   1   2
BRANCH   1   4
ATOM      4  C   THR A   1      24.095  28.588  34.064  0.00  0.00    +0.227 C 
ATOM      5  O   THR A   1      24.253  29.730  33.621  0.00  0.00    -0.287 OA
ENDBRANCH   1   4
BRANCH   1   6
ATOM      6  CB  THR A   1      24.822  27.788  31.802  0.00  0.00    +0.134 C 
ATOM      7  CG2 THR A   1      25.621  26.715  31.069  0.00  0.00    +0.034 C 
BRANCH   6   8
ATOM      8  OG1 THR A   1      23.557  27.978  31.153  0.00  0.00    -0.383 OA
ATOM      9  HG1 THR A   1      23.053  28.691  31.618  0.00  0.00    +0.210 HD
ENDBRANCH   6   8
ENDBRANCH   1   6
TORSDOF 4
REMARK  Name = ../refined-set-2016/1m4h/1m4h_pocket.pdb
REMARK  293 active torsions:
REMARK  status: ('A' for Active; 'I' for Inactive)
REMARK    1  A    between atoms: _1  and  _3
REMARK    2  A    between atoms: _3  and  _4
REMARK    3  A    between atoms: _3  and  _6
REMARK    4  A    between atoms: _6  and  _7
REMARK    5  A    between atoms: _7  and  _8
REMARK    6  A    between atoms: _8  and  _9
REMARK    7  A    between atoms: _9  and  _10
REMARK    8  A    between atoms: _14  and  _16
REMARK    9  A    between atoms: _16  and  _17
REMARK   10  A    between atoms: _16  and  _19
REMARK   11  A    between atoms: _19  and  _20
REMARK   12  A    between atoms: _22  and  _24
REMARK   13  A    between atoms: _24  and  _25
REMARK   14  A    between atoms: _27  and  _29
REMARK   15  A    between atoms: _29  and  _30
REMARK   16  A    between atoms: _29  and  _32
REMARK   17  A    between atoms: _32  and  _33
REMARK   18  A    between atoms: _33  and  _34
REMARK   19  A    between atoms: _39  and  _41
REMARK   20  A    between atoms: _41  and  _42
REMARK   21  A    between atoms: _44  and  _46
REMARK   22  A    between atoms: _46  and  _47
REMARK   23  A    between atoms: _46  and  _49
REMARK   24  A    between atoms: _49  and  _50
REMARK   25  A    between atoms: _55  and  _56
REMARK   26  A    between atoms: _58  and  _60
REMARK   27  A    between atoms: _60  and  _61
REMARK   28  A    between atoms: _60  and  _63
REMARK   29  A    between atoms: _63  and  _64
REMARK   30  A    between atoms: _67  and  _69
REMARK   31  A    between atoms: _69  and  _70
REMARK   32  A    between atoms: _69  and  _72
REMARK   33  A    between atoms: _75  and  _77
REMARK   34  A    between atoms: _77  and  _78
REMARK   35  A    between atoms: _77  and  _80
REMARK   36  A    between atoms: _80  and  _81
REMARK   37  A    between atoms: _84  and  _86
REMARK   38  A    between atoms: _86  and  _87
REMARK   39  A    between atoms: _86  and  _89
REMARK   40  A    between atoms: _89  and  _90
REMARK   41  A    between atoms: _93  and  _95
REMARK   42  A    between atoms: _95  and  _96
REMARK   43  A    between atoms: _98  and  _100
REMARK   44  A    between atoms: _100  and  _101
REMARK   45  A    between atoms: _100  and  _103
REMARK   46  A    between atoms: _103  and  _104
REMARK   47  A    between atoms: _106  and  _108
REMARK   48  A    between atoms: _108  and  _109
REMARK   49  A    between atoms: _108  and  _111
REMARK   50  A    between atoms: _111  and  _112
REMARK   51  A    between atoms: _114  and  _116
REMARK   52  A    between atoms: _116  and  _117
REMARK   53  A    between atoms: _116  and  _119
REMARK   54  A    between atoms: _119  and  _120
REMARK   55  A    between atoms: _125  and  _127
REMARK   56  A    between atoms: _127  and  _128
REMARK   57  A    between atoms: _127  and  _130
REMARK   58  A    between atoms: _130  and  _131
REMARK   59  A    between atoms: _136  and  _137
REMARK   60  A    between atoms: _139  and  _141
REMARK   61  A    between atoms: _141  and  _142
REMARK   62  A    between atoms: _141  and  _144
REMARK   63  A    between atoms: _148  and  _149
REMARK   64  A    between atoms: _154  and  _156
REMARK   65  A    between atoms: _156  and  _157
REMARK   66  A    between atoms: _156  and  _159
REMARK   67  A    between atoms: _159  and  _160
REMARK   68  A    between atoms: _165  and  _166
REMARK   69  A    between atoms: _168  and  _170
REMARK   70  A    between atoms: _170  and  _171
REMARK   71  A    between atoms: _170  and  _173
REMARK   72  A    between atoms: _173  and  _174
REMARK   73  A    between atoms: _177  and  _179
REMARK   74  A    between atoms: _179  and  _180
REMARK   75  A    between atoms: _179  and  _182
REMARK   76  A    between atoms: _182  and  _183
REMARK   77  A    between atoms: _183  and  _184
REMARK   78  A    between atoms: _189  and  _191
REMARK   79  A    between atoms: _191  and  _192
REMARK   80  A    between atoms: _194  and  _196
REMARK   81  A    between atoms: _196  and  _197
REMARK   82  A    between atoms: _196  and  _199
REMARK   83  A    between atoms: _199  and  _200
REMARK   84  A    between atoms: _200  and  _201
REMARK   85  A    between atoms: _201  and  _202
REMARK   86  A    between atoms: _202  and  _203
REMARK   87  A    between atoms: _207  and  _209
REMARK   88  A    between atoms: _209  and  _210
REMARK   89  A    between atoms: _209  and  _212
REMARK   90  A    between atoms: _212  and  _213
REMARK   91  A    between atoms: _223  and  _225
REMARK   92  A    between atoms: _225  and  _226
REMARK   93  A    between atoms: _225  and  _228
REMARK   94  A    between atoms: _228  and  _229
REMARK   95  A    between atoms: _232  and  _234
REMARK   96  A    between atoms: _234  and  _235
REMARK   97  A    between atoms: _234  and  _237
REMARK   98  A    between atoms: _237  and  _238
REMARK   99  A    between atoms: _238  and  _239
REMARK  100  A    between atoms: _239  and  _240
REMARK  101  A    between atoms: _240  and  _241
REMARK  102  A    between atoms: _245  and  _247
REMARK  103  A    between atoms: _247  and  _248
REMARK  104  A    between atoms: _247  and  _250
REMARK  105  A    between atoms: _250  and  _251
REMARK  106  A    between atoms: _257  and  _259
REMARK  107  A    between atoms: _259  and  _260
REMARK  108  A    between atoms: _259  and  _262
REMARK  109  A    between atoms: _262  and  _263
REMARK  110  A    between atoms: _269  and  _271
REMARK  111  A    between atoms: _271  and  _272
REMARK  112  A    between atoms: _271  and  _274
REMARK  113  A    between atoms: _274  and  _275
REMARK  114  A    between atoms: _278  and  _280
REMARK  115  A    between atoms: _280  and  _281
REMARK  116  A    between atoms: _280  and  _283
REMARK  117  A    between atoms: _283  and  _284
REMARK  118  A    between atoms: _286  and  _288
REMARK  119  A    between atoms: _288  and  _289
REMARK  120  A    between atoms: _288  and  _291
REMARK  121  A    between atoms: _291  and  _292
REMARK  122  A    between atoms: _302  and  _304
REMARK  123  A    between atoms: _304  and  _305
REMARK  124  A    between atoms: _307  and  _309
REMARK  125  A    between atoms: _309  and  _310
REMARK  126  A    between atoms: _309  and  _312
REMARK  127  A    between atoms: _312  and  _313
REMARK  128  A    between atoms: _316  and  _318
REMARK  129  A    between atoms: _318  and  _319
REMARK  130  A    between atoms: _318  and  _321
REMARK  131  A    between atoms: _321  and  _322
REMARK  132  A    between atoms: _325  and  _327
REMARK  133  A    between atoms: _327  and  _328
REMARK  134  A    between atoms: _327  and  _330
REMARK  135  A    between atoms: _330  and  _331
REMARK  136  A    between atoms: _334  and  _336
REMARK  137  A    between atoms: _336  and  _337
REMARK  138  A    between atoms: _340  and  _342
REMARK  139  A    between atoms: _342  and  _343
REMARK  140  A    between atoms: _342  and  _345
REMARK  141  A    between atoms: _345  and  _346
REMARK  142  A    between atoms: _351  and  _352
REMARK  143  A    between atoms: _354  and  _356
REMARK  144  A    between atoms: _356  and  _357
REMARK  145  A    between atoms: _360  and  _362
REMARK  146  A    between atoms: _362  and  _363
REMARK  147  A    between atoms: _362  and  _365
REMARK  148  A    between atoms: _365  and  _366
REMARK  149  A    between atoms: _366  and  _367
REMARK  150  A    between atoms: _370  and  _372
REMARK  151  A    between atoms: _372  and  _373
REMARK  152  A    between atoms: _372  and  _375
REMARK  153  A    between atoms: _375  and  _376
REMARK  154  A    between atoms: _379  and  _381
REMARK  155  A    between atoms: _381  and  _382
REMARK  156  A    between atoms: _385  and  _387
REMARK  157  A    between atoms: _387  and  _388
REMARK  158  A    between atoms: _387  and  _390
REMARK  159  A    between atoms: _390  and  _391
REMARK  160  A    between atoms: _391  and  _392
REMARK  161  A    between atoms: _392  and  _393
REMARK  162  A    between atoms: _403  and  _404
REMARK  163  A    between atoms: _409  and  _411
REMARK  164  A    between atoms: _411  and  _412
REMARK  165  A    between atoms: _411  and  _414
REMARK  166  A    between atoms: _414  and  _415
REMARK  167  A    between atoms: _418  and  _420
REMARK  168  A    between atoms: _420  and  _421
REMARK  169  A    between atoms: _420  and  _423
REMARK  170  A    between atoms: _423  and  _424
REMARK  171  A    between atoms: _427  and  _429
REMARK  172  A    between atoms: _429  and  _430
REMARK  173  A    between atoms: _429  and  _432
REMARK  174  A    between atoms: _432  and  _433
REMARK  175  A    between atoms: _433  and  _434
REMARK  176  A    between atoms: _434  and  _435
REMARK  177  A    between atoms: _444  and  _446
REMARK  178  A    between atoms: _446  and  _447
REMARK  179  A    between atoms: _446  and  _449
REMARK  180  A    between atoms: _449  and  _450
REMARK  181  A    between atoms: _460  and  _462
REMARK  182  A    between atoms: _462  and  _463
REMARK  183  A    between atoms: _462  and  _465
REMARK  184  A    between atoms: _465  and  _466
REMARK  185  A    between atoms: _471  and  _472
REMARK  186  A    between atoms: _474  and  _476
REMARK  187  A    between atoms: _476  and  _477
REMARK  188  A    between atoms: _476  and  _479
REMARK  189  A    between atoms: _479  and  _480
REMARK  190  A    between atoms: _480  and  _481
REMARK  191  A    between atoms: _481  and  _482
REMARK  192  A    between atoms: _482  and  _483
REMARK  193  A    between atoms: _487  and  _489
REMARK  194  A    between atoms: _489  and  _490
REMARK  195  A    between atoms: _489  and  _492
REMARK  196  A    between atoms: _492  and  _493
REMARK  197  A    between atoms: _496  and  _498
REMARK  198  A    between atoms: _498  and  _499
REMARK  199  A    between atoms: _498  and  _501
REMARK  200  A    between atoms: _504  and  _506
REMARK  201  A    between atoms: _506  and  _507
REMARK  202  A    between atoms: _506  and  _509
REMARK  203  A    between atoms: _509  and  _510
REMARK  204  A    between atoms: _513  and  _515
REMARK  205  A    between atoms: _515  and  _516
REMARK  206  A    between atoms: _515  and  _518
REMARK  207  A    between atoms: _518  and  _519
REMARK  208  A    between atoms: _521  and  _523
REMARK  209  A    between atoms: _523  and  _524
REMARK  210  A    between atoms: _526  and  _528
REMARK  211  A    between atoms: _528  and  _529
REMARK  212  A    between atoms: _528  and  _531
REMARK  213  A    between atoms: _531  and  _532
REMARK  214  A    between atoms: _535  and  _537
REMARK  215  A    between atoms: _537  and  _538
REMARK  216  A    between atoms: _537  and  _540
REMARK  217  A    between atoms: _540  and  _541
REMARK  218  A    between atoms: _544  and  _546
REMARK  219  A    between atoms: _546  and  _547
REMARK  220  A    between atoms: _546  and  _549
REMARK  221  A    between atoms: _549  and  _550
REMARK  222  A    between atoms: _555  and  _557
REMARK  223  A    between atoms: _557  and  _558
REMARK  224  A    between atoms: _557  and  _560
REMARK  225  A    between atoms: _560  and  _561
REMARK  226  A    between atoms: _564  and  _566
REMARK  227  A    between atoms: _566  and  _567
REMARK  228  A    between atoms: _566  and  _569
REMARK  229  A    between atoms: _569  and  _570
REMARK  230  A    between atoms: _570  and  _571
REMARK  231  A    between atoms: _571  and  _572
REMARK  232  A    between atoms: _581  and  _583
REMARK  233  A    between atoms: _583  and  _584
REMARK  234  A    between atoms: _586  and  _588
REMARK  235  A    between atoms: _588  and  _589
REMARK  236  A    between atoms: _588  and  _591
REMARK  237  A    between atoms: _591  and  _592
REMARK  238  A    between atoms: _592  and  _593
REMARK  239  A    between atoms: _596  and  _598
REMARK  240  A    between atoms: _598  and  _599
REMARK  241  A    between atoms: _598  and  _601
REMARK  242  A    between atoms: _601  and  _602
REMARK  243  A    between atoms: _602  and  _603
REMARK  244  A    between atoms: _603  and  _604
REMARK  245  A    between atoms: _614  and  _615
REMARK  246  A    between atoms: _620  and  _622
REMARK  247  A    between atoms: _622  and  _623
REMARK  248  A    between atoms: _622  and  _625
REMARK  249  A    between atoms: _628  and  _630
REMARK  250  A    between atoms: _630  and  _631
REMARK  251  A    between atoms: _630  and  _633
REMARK  252  A    between atoms: _633  and  _634
REMARK  253  A    between atoms: _634  and  _635
REMARK  254  A    between atoms: _638  and  _640
REMARK  255  A    between atoms: _640  and  _641
REMARK  256  A    between atoms: _640  and  _643
REMARK  257  A    between atoms: _643  and  _644
REMARK  258  A    between atoms: _644  and  _645
REMARK  259  A    between atoms: _645  and  _646
REMARK  260  A    between atoms: _646  and  _647
REMARK  261  A    between atoms: _651  and  _653
REMARK  262  A    between atoms: _653  and  _654
REMARK  263  A    between atoms: _657  and  _659
REMARK  264  A    between atoms: _659  and  _660
REMARK  265  A    between atoms: _659  and  _662
REMARK  266  A    between atoms: _662  and  _663
REMARK  267  A    between atoms: _665  and  _667
REMARK  268  A    between atoms: _667  and  _668
REMARK  269  A    between atoms: _667  and  _670
REMARK  270  A    between atoms: _670  and  _671
REMARK  271  A    between atoms: _671  and  _672
REMARK  272  A    between atoms: _677  and  _679
REMARK  273  A    between atoms: _679  and  _680
REMARK  274  A    between atoms: _679  and  _682
REMARK  275  A    between atoms: _682  and  _683
REMARK  276  A    between atoms: _685  and  _687
REMARK  277  A    between atoms: _687  and  _688
REMARK  278  A    between atoms: _687  and  _690
REMARK  279  A    between atoms: _690  and  _691
REMARK  280  A    between atoms: _694  and  _696
REMARK  281  A    between atoms: _696  and  _697
REMARK  282  A    between atoms: _696  and  _699
REMARK  283  A    between atoms: _699  and  _700
REMARK  284  A    between atoms: _703  and  _705
REMARK  285  A    between atoms: _705  and  _706
REMARK  286  A    between atoms: _705  and  _708
REMARK  287  A    between atoms: _711  and  _713
REMARK  288  A    between atoms: _713  and  _714
REMARK  289  A    between atoms: _716  and  _718
REMARK  290  A    between atoms: _718  and  _719
REMARK  291  A    between atoms: _722  and  _724
REMARK  292  A    between atoms: _724  and  _725
REMARK  293  A    between atoms: _724  and  _727
REMARK                            x       y       z     vdW  Elec       q    Type
REMARK                         _______ _______ _______ _____ _____    ______ ____
ROOT
ATOM      1  C   THR A   1      19.709  32.386  35.163  0.00  0.00    +0.241 C 
ATOM      2  O   THR A   1      20.602  33.204  34.956  0.00  0.00    -0.274 OA
ATOM      3  N   VAL A   2      18.629  32.281  34.390  0.00  0.00    -0.298 N 
ATOM      4  H   VAL A   2      17.932  31.530  34.566  0.00  0.00    +0.150 HD
ENDROOT
BRANCH   1   5
ATOM      5  CA  THR A   1      19.809  31.414  36.323  0.00  0.00    +0.172 C 
BRANCH   5   6
ATOM      6  N   THR A   1      21.148  30.891  36.493  0.00  0.00    -0.236 NA
ATOM      7  H   THR A   1      21.772  31.312  37.210  0.00  0.00    +0.142 HD
ENDBRANCH   5   6
BRANCH   5   8
ATOM      8  CB  THR A   1      19.347  32.142  37.602  0.00  0.00    +0.135 C 
ATOM      9  CG2 THR A   1      17.990  32.816  37.387  0.00  0.00    +0.034 C 
BRANCH   8  10
ATOM     10  OG1 THR A   1      19.250  31.195  38.670  0.00  0.00    -0.383 OA
ATOM     11  HG1 THR A   1      18.954  31.657  39.494  0.00  0.00    +0.210 HD
ENDBRANCH   8  10
ENDBRANCH   5   8
ENDBRANCH   1   5
BRANCH   3  12
ATOM     12  CA  VAL A   2      18.431  33.212  33.310  0.00  0.00    +0.137 C 
BRANCH  12  13
ATOM     13  CB  VAL A   2      18.503  32.573  31.921  0.00  0.00    +0.026 C 
ATOM     14  CG2 VAL A   2      19.866  31.889  31.673  0.00  0.00    +0.002 C 
ATOM     15  CG1 VAL A   2      18.288  33.658  30.904  0.00  0.00    +0.002 C 
ENDBRANCH  12  13
BRANCH  12  16
ATOM     16  C   VAL A   2      17.046  33.807  33.467  0.00  0.00    +0.227 C 
ATOM     17  O   VAL A   2      16.047  33.110  33.360  0.00  0.00    -0.286 OA
ENDBRANCH  12  16
ENDBRANCH   3  12
TORSDOF 7
REMARK  Name = ../refined-set-2016/1m4h/1m4h_pocket.pdb
REMARK  293 active torsions:
REMARK  status: ('A' for Active; 'I' for Inactive)
REMARK    1  A    between atoms: _1  and  _3
REMARK    2  A    between atoms: _3  and  _4
REMARK    3  A    between atoms: _3  and  _6
REMARK    4  A    between atoms: _6  and  _7
REMARK    5  A    between atoms: _7  and  _8
REMARK    6  A    between atoms: _8  and  _9
REMARK    7  A    between atoms: _9  and  _10
REMARK    8  A    between atoms: _14  and  _16
REMARK    9  A    between atoms: _16  and  _17
REMARK   10  A    between atoms: _16  and  _19
REMARK   11  A    between atoms: _19  and  _20
REMARK   12  A    between atoms: _22  and  _24
REMARK   13  A    between atoms: _24  and  _25
REMARK   14  A    between atoms: _27  and  _29
REMARK   15  A    between atoms: _29  and  _30
REMARK   16  A    between atoms: _29  and  _32
REMARK   17  A    between atoms: _32  and  _33
REMARK   18  A    between atoms: _33  and  _34
REMARK   19  A    between atoms: _39  and  _41
REMARK   20  A    between atoms: _41  and  _42
REMARK   21  A    between atoms: _44  and  _46
REMARK   22  A    between atoms: _46  and  _47
REMARK   23  A    between atoms: _46  and  _49
REMARK   24  A    between atoms: _49  and  _50
REMARK   25  A    between atoms: _55  and  _56
REMARK   26  A    between atoms: _58  and  _60
REMARK   27  A    between atoms: _60  and  _61
REMARK   28  A    between atoms: _60  and  _63
REMARK   29  A    between atoms: _63  and  _64
REMARK   30  A    between atoms: _67  and  _69
REMARK   31  A    between atoms: _69  and  _70
REMARK   32  A    between atoms: _69  and  _72
REMARK   33  A    between atoms: _75  and  _77
REMARK   34  A    between atoms: _77  and  _78
REMARK   35  A    between atoms: _77  and  _80
REMARK   36  A    between atoms: _80  and  _81
REMARK   37  A    between atoms: _84  and  _86
REMARK   38  A    between atoms: _86  and  _87
REMARK   39  A    between atoms: _86  and  _89
REMARK   40  A    between atoms: _89  and  _90
REMARK   41  A    between atoms: _93  and  _95
REMARK   42  A    between atoms: _95  and  _96
REMARK   43  A    between atoms: _98  and  _100
REMARK   44  A    between atoms: _100  and  _101
REMARK   45  A    between atoms: _100  and  _103
REMARK   46  A    between atoms: _103  and  _104
REMARK   47  A    between atoms: _106  and  _108
REMARK   48  A    between atoms: _108  and  _109
REMARK   49  A    between atoms: _108  and  _111
REMARK   50  A    between atoms: _111  and  _112
REMARK   51  A    between atoms: _114  and  _116
REMARK   52  A    between atoms: _116  and  _117
REMARK   53  A    between atoms: _116  and  _119
REMARK   54  A    between atoms: _119  and  _120
REMARK   55  A    between atoms: _125  and  _127
REMARK   56  A    between atoms: _127  and  _128
REMARK   57  A    between atoms: _127  and  _130
REMARK   58  A    between atoms: _130  and  _131
REMARK   59  A    between atoms: _136  and  _137
REMARK   60  A    between atoms: _139  and  _141
REMARK   61  A    between atoms: _141  and  _142
REMARK   62  A    between atoms: _141  and  _144
REMARK   63  A    between atoms: _148  and  _149
REMARK   64  A    between atoms: _154  and  _156
REMARK   65  A    between atoms: _156  and  _157
REMARK   66  A    between atoms: _156  and  _159
REMARK   67  A    between atoms: _159  and  _160
REMARK   68  A    between atoms: _165  and  _166
REMARK   69  A    between atoms: _168  and  _170
REMARK   70  A    between atoms: _170  and  _171
REMARK   71  A    between atoms: _170  and  _173
REMARK   72  A    between atoms: _173  and  _174
REMARK   73  A    between atoms: _177  and  _179
REMARK   74  A    between atoms: _179  and  _180
REMARK   75  A    between atoms: _179  and  _182
REMARK   76  A    between atoms: _182  and  _183
REMARK   77  A    between atoms: _183  and  _184
REMARK   78  A    between atoms: _189  and  _191
REMARK   79  A    between atoms: _191  and  _192
REMARK   80  A    between atoms: _194  and  _196
REMARK   81  A    between atoms: _196  and  _197
REMARK   82  A    between atoms: _196  and  _199
REMARK   83  A    between atoms: _199  and  _200
REMARK   84  A    between atoms: _200  and  _201
REMARK   85  A    between atoms: _201  and  _202
REMARK   86  A    between atoms: _202  and  _203
REMARK   87  A    between atoms: _207  and  _209
REMARK   88  A    between atoms: _209  and  _210
REMARK   89  A    between atoms: _209  and  _212
REMARK   90  A    between atoms: _212  and  _213
REMARK   91  A    between atoms: _223  and  _225
REMARK   92  A    between atoms: _225  and  _226
REMARK   93  A    between atoms: _225  and  _228
REMARK   94  A    between atoms: _228  and  _229
REMARK   95  A    between atoms: _232  and  _234
REMARK   96  A    between atoms: _234  and  _235
REMARK   97  A    between atoms: _234  and  _237
REMARK   98  A    between atoms: _237  and  _238
REMARK   99  A    between atoms: _238  and  _239
REMARK  100  A    between atoms: _239  and  _240
REMARK  101  A    between atoms: _240  and  _241
REMARK  102  A    between atoms: _245  and  _247
REMARK  103  A    between atoms: _247  and  _248
REMARK  104  A    between atoms: _247  and  _250
REMARK  105  A    between atoms: _250  and  _251
REMARK  106  A    between atoms: _257  and  _259
REMARK  107  A    between atoms: _259  and  _260
REMARK  108  A    between atoms: _259  and  _262
REMARK  109  A    between atoms: _262  and  _263
REMARK  110  A    between atoms: _269  and  _271
REMARK  111  A    between atoms: _271  and  _272
REMARK  112  A    between atoms: _271  and  _274
REMARK  113  A    between atoms: _274  and  _275
REMARK  114  A    between atoms: _278  and  _280
REMARK  115  A    between atoms: _280  and  _281
REMARK  116  A    between atoms: _280  and  _283
REMARK  117  A    between atoms: _283  and  _284
REMARK  118  A    between atoms: _286  and  _288
REMARK  119  A    between atoms: _288  and  _289
REMARK  120  A    between atoms: _288  and  _291
REMARK  121  A    between atoms: _291  and  _292
REMARK  122  A    between atoms: _302  and  _304
REMARK  123  A    between atoms: _304  and  _305
REMARK  124  A    between atoms: _307  and  _309
REMARK  125  A    between atoms: _309  and  _310
REMARK  126  A    between atoms: _309  and  _312
REMARK  127  A    between atoms: _312  and  _313
REMARK  128  A    between atoms: _316  and  _318
REMARK  129  A    between atoms: _318  and  _319
REMARK  130  A    between atoms: _318  and  _321
REMARK  131  A    between atoms: _321  and  _322
REMARK  132  A    between atoms: _325  and  _327
REMARK  133  A    between atoms: _327  and  _328
REMARK  134  A    between atoms: _327  and  _330
REMARK  135  A    between atoms: _330  and  _331
REMARK  136  A    between atoms: _334  and  _336
REMARK  137  A    between atoms: _336  and  _337
REMARK  138  A    between atoms: _340  and  _342
REMARK  139  A    between atoms: _342  and  _343
REMARK  140  A    between atoms: _342  and  _345
REMARK  141  A    between atoms: _345  and  _346
REMARK  142  A    between atoms: _351  and  _352
REMARK  143  A    between atoms: _354  and  _356
REMARK  144  A    between atoms: _356  and  _357
REMARK  145  A    between atoms: _360  and  _362
REMARK  146  A    between atoms: _362  and  _363
REMARK  147  A    between atoms: _362  and  _365
REMARK  148  A    between atoms: _365  and  _366
REMARK  149  A    between atoms: _366  and  _367
REMARK  150  A    between atoms: _370  and  _372
REMARK  151  A    between atoms: _372  and  _373
REMARK  152  A    between atoms: _372  and  _375
REMARK  153  A    between atoms: _375  and  _376
REMARK  154  A    between atoms: _379  and  _381
REMARK  155  A    between atoms: _381  and  _382
REMARK  156  A    between atoms: _385  and  _387
REMARK  157  A    between atoms: _387  and  _388
REMARK  158  A    between atoms: _387  and  _390
REMARK  159  A    between atoms: _390  and  _391
REMARK  160  A    between atoms: _391  and  _392
REMARK  161  A    between atoms: _392  and  _393
REMARK  162  A    between atoms: _403  and  _404
REMARK  163  A    between atoms: _409  and  _411
REMARK  164  A    between atoms: _411  and  _412
REMARK  165  A    between atoms: _411  and  _414
REMARK  166  A    between atoms: _414  and  _415
REMARK  167  A    between atoms: _418  and  _420
REMARK  168  A    between atoms: _420  and  _421
REMARK  169  A    between atoms: _420  and  _423
REMARK  170  A    between atoms: _423  and  _424
REMARK  171  A    between atoms: _427  and  _429
REMARK  172  A    between atoms: _429  and  _430
REMARK  173  A    between atoms: _429  and  _432
REMARK  174  A    between atoms: _432  and  _433
REMARK  175  A    between atoms: _433  and  _434
REMARK  176  A    between atoms: _434  and  _435
REMARK  177  A    between atoms: _444  and  _446
REMARK  178  A    between atoms: _446  and  _447
REMARK  179  A    between atoms: _446  and  _449
REMARK  180  A    between atoms: _449  and  _450
REMARK  181  A    between atoms: _460  and  _462
REMARK  182  A    between atoms: _462  and  _463
REMARK  183  A    between atoms: _462  and  _465
REMARK  184  A    between atoms: _465  and  _466
REMARK  185  A    between atoms: _471  and  _472
REMARK  186  A    between atoms: _474  and  _476
REMARK  187  A    between atoms: _476  and  _477
REMARK  188  A    between atoms: _476  and  _479
REMARK  189  A    between atoms: _479  and  _480
REMARK  190  A    between atoms: _480  and  _481
REMARK  191  A    between atoms: _481  and  _482
REMARK  192  A    between atoms: _482  and  _483
REMARK  193  A    between atoms: _487  and  _489
REMARK  194  A    between atoms: _489  and  _490
REMARK  195  A    between atoms: _489  and  _492
REMARK  196  A    between atoms: _492  and  _493
REMARK  197  A    between atoms: _496  and  _498
REMARK  198  A    between atoms: _498  and  _499
REMARK  199  A    between atoms: _498  and  _501
REMARK  200  A    between atoms: _504  and  _506
REMARK  201  A    between atoms: _506  and  _507
REMARK  202  A    between atoms: _506  and  _509
REMARK  203  A    between atoms: _509  and  _510
REMARK  204  A    between atoms: _513  and  _515
REMARK  205  A    between atoms: _515  and  _516
REMARK  206  A    between atoms: _515  and  _518
REMARK  207  A    between atoms: _518  and  _519
REMARK  208  A    between atoms: _521  and  _523
REMARK  209  A    between atoms: _523  and  _524
REMARK  210  A    between atoms: _526  and  _528
REMARK  211  A    between atoms: _528  and  _529
REMARK  212  A    between atoms: _528  and  _531
REMARK  213  A    between atoms: _531  and  _532
REMARK  214  A    between atoms: _535  and  _537
REMARK  215  A    between atoms: _537  and  _538
REMARK  216  A    between atoms: _537  and  _540
REMARK  217  A    between atoms: _540  and  _541
REMARK  218  A    between atoms: _544  and  _546
REMARK  219  A    between atoms: _546  and  _547
REMARK  220  A    between atoms: _546  and  _549
REMARK  221  A    between atoms: _549  and  _550
REMARK  222  A    between atoms: _555  and  _557
REMARK  223  A    between atoms: _557  and  _558
REMARK  224  A    between atoms: _557  and  _560
REMARK  225  A    between atoms: _560  and  _561
REMARK  226  A    between atoms: _564  and  _566
REMARK  227  A    between atoms: _566  and  _567
REMARK  228  A    between atoms: _566  and  _569
REMARK  229  A    between atoms: _569  and  _570
REMARK  230  A    between atoms: _570  and  _571
REMARK  231  A    between atoms: _571  and  _572
REMARK  232  A    between atoms: _581  and  _583
REMARK  233  A    between atoms: _583  and  _584
REMARK  234  A    between atoms: _586  and  _588
REMARK  235  A    between atoms: _588  and  _589
REMARK  236  A    between atoms: _588  and  _591
REMARK  237  A    between atoms: _591  and  _592
REMARK  238  A    between atoms: _592  and  _593
REMARK  239  A    between atoms: _596  and  _598
REMARK  240  A    between atoms: _598  and  _599
REMARK  241  A    between atoms: _598  and  _601
REMARK  242  A    between atoms: _601  and  _602
REMARK  243  A    between atoms: _602  and  _603
REMARK  244  A    between atoms: _603  and  _604
REMARK  245  A    between atoms: _614  and  _615
REMARK  246  A    between atoms: _620  and  _622
REMARK  247  A    between atoms: _622  and  _623
REMARK  248  A    between atoms: _622  and  _625
REMARK  249  A    between atoms: _628  and  _630
REMARK  250  A    between atoms: _630  and  _631
REMARK  251  A    between atoms: _630  and  _633
REMARK  252  A    between atoms: _633  and  _634
REMARK  253  A    between atoms: _634  and  _635
REMARK  254  A    between atoms: _638  and  _640
REMARK  255  A    between atoms: _640  and  _641
REMARK  256  A    between atoms: _640  and  _643
REMARK  257  A    between atoms: _643  and  _644
REMARK  258  A    between atoms: _644  and  _645
REMARK  259  A    between atoms: _645  and  _646
REMARK  260  A    between atoms: _646  and  _647
REMARK  261  A    between atoms: _651  and  _653
REMARK  262  A    between atoms: _653  and  _654
REMARK  263  A    between atoms: _657  and  _659
REMARK  264  A    between atoms: _659  and  _660
REMARK  265  A    between atoms: _659  and  _662
REMARK  266  A    between atoms: _662  and  _663
REMARK  267  A    between atoms: _665  and  _667
REMARK  268  A    between atoms: _667  and  _668
REMARK  269  A    between atoms: _667  and  _670
REMARK  270  A    between atoms: _670  and  _671
REMARK  271  A    between atoms: _671  and  _672
REMARK  272  A    between atoms: _677  and  _679
REMARK  273  A    between atoms: _679  and  _680
REMARK  274  A    between atoms: _679  and  _682
REMARK  275  A    between atoms: _682  and  _683
REMARK  276  A    between atoms: _685  and  _687
REMARK  277  A    between atoms: _687  and  _688
REMARK  278  A    between atoms: _687  and  _690
REMARK  279  A    between atoms: _690  and  _691
REMARK  280  A    between atoms: _694  and  _696
REMARK  281  A    between atoms: _696  and  _697
REMARK  282  A    between atoms: _696  and  _699
REMARK  283  A    between atoms: _699  and  _700
REMARK  284  A    between atoms: _703  and  _705
REMARK  285  A    between atoms: _705  and  _706
REMARK  286  A    between atoms: _705  and  _708
REMARK  287  A    between atoms: _711  and  _713
REMARK  288  A    between atoms: _713  and  _714
REMARK  289  A    between atoms: _716  and  _718
REMARK  290  A    between atoms: _718  and  _719
REMARK  291  A    between atoms: _722  and  _724
REMARK  292  A    between atoms: _724  and  _725
REMARK  293  A    between atoms: _724  and  _727
REMARK                            x       y       z     vdW  Elec       q    Type
REMARK                         _______ _______ _______ _____ _____    ______ ____
ROOT
ATOM      1  C   ALA A   2      10.215  37.101  29.285  0.00  0.00    +0.241 C 
ATOM      2  N   VAL A   3       9.863  35.884  29.667  0.00  0.00    -0.298 N 
ATOM      3  H   VAL A   3      10.453  35.061  29.429  0.00  0.00    +0.150 HD
ATOM      4  O   ALA A   2       9.569  38.095  29.596  0.00  0.00    -0.273 OA
ENDROOT
BRANCH   1   5
ATOM      5  CA  ALA A   2      11.474  37.240  28.449  0.00  0.00    +0.149 C 
ATOM      6  CB  ALA A   2      11.178  36.860  27.005  0.00  0.00    +0.031 C 
BRANCH   5   9
ATOM      7  C   GLY A   1      13.053  36.499  30.175  0.00  0.00    +0.240 C 
ATOM      8  O   GLY A   1      12.526  37.141  31.096  0.00  0.00    -0.274 OA
ATOM      9  N   ALA A   2      12.613  36.480  28.922  0.00  0.00    -0.297 N 
ATOM     10  H   ALA A   2      13.118  35.882  28.237  0.00  0.00    +0.150 HD
BRANCH   7  11
ATOM     11  CA  GLY A   1      14.282  35.647  30.393  0.00  0.00    +0.169 C 
BRANCH  11  12
ATOM     12  N   GLY A   1      14.649  35.393  31.761  0.00  0.00    -0.236 NA
ATOM     13  H   GLY A   1      14.321  34.521  32.222  0.00  0.00    +0.142 HD
ENDBRANCH  11  12
ENDBRANCH   7  11
ENDBRANCH   5   9
ENDBRANCH   1   5
BRANCH   2  14
ATOM     14  CA  VAL A   3       8.637  35.721  30.425  0.00  0.00    +0.137 C 
BRANCH  14  15
ATOM     15  CB  VAL A   3       8.241  34.232  30.557  0.00  0.00    +0.026 C 
ATOM     16  CG2 VAL A   3       9.346  33.421  31.257  0.00  0.00    +0.002 C 
ATOM     17  CG1 VAL A   3       7.942  33.680  29.143  0.00  0.00    +0.002 C 
ENDBRANCH  14  15
BRANCH  14  18
ATOM     18  C   VAL A   3       8.716  36.413  31.767  0.00  0.00    +0.227 C 
ATOM     19  O   VAL A   3       7.702  36.868  32.277  0.00  0.00    -0.286 OA
ENDBRANCH  14  18
ENDBRANCH   2  14
TORSDOF 7
REMARK  Name = ../refined-set-2016/1m4h/1m4h_pocket.pdb
REMARK  293 active torsions:
REMARK  status: ('A' for Active; 'I' for Inactive)
REMARK    1  A    between atoms: _1  and  _3
REMARK    2  A    between atoms: _3  and  _4
REMARK    3  A    between atoms: _3  and  _6
REMARK    4  A    between atoms: _6  and  _7
REMARK    5  A    between atoms: _7  and  _8
REMARK    6  A    between atoms: _8  and  _9
REMARK    7  A    between atoms: _9  and  _10
REMARK    8  A    between atoms: _14  and  _16
REMARK    9  A    between atoms: _16  and  _17
REMARK   10  A    between atoms: _16  and  _19
REMARK   11  A    between atoms: _19  and  _20
REMARK   12  A    between atoms: _22  and  _24
REMARK   13  A    between atoms: _24  and  _25
REMARK   14  A    between atoms: _27  and  _29
REMARK   15  A    between atoms: _29  and  _30
REMARK   16  A    between atoms: _29  and  _32
REMARK   17  A    between atoms: _32  and  _33
REMARK   18  A    between atoms: _33  and  _34
REMARK   19  A    between atoms: _39  and  _41
REMARK   20  A    between atoms: _41  and  _42
REMARK   21  A    between atoms: _44  and  _46
REMARK   22  A    between atoms: _46  and  _47
REMARK   23  A    between atoms: _46  and  _49
REMARK   24  A    between atoms: _49  and  _50
REMARK   25  A    between atoms: _55  and  _56
REMARK   26  A    between atoms: _58  and  _60
REMARK   27  A    between atoms: _60  and  _61
REMARK   28  A    between atoms: _60  and  _63
REMARK   29  A    between atoms: _63  and  _64
REMARK   30  A    between atoms: _67  and  _69
REMARK   31  A    between atoms: _69  and  _70
REMARK   32  A    between atoms: _69  and  _72
REMARK   33  A    between atoms: _75  and  _77
REMARK   34  A    between atoms: _77  and  _78
REMARK   35  A    between atoms: _77  and  _80
REMARK   36  A    between atoms: _80  and  _81
REMARK   37  A    between atoms: _84  and  _86
REMARK   38  A    between atoms: _86  and  _87
REMARK   39  A    between atoms: _86  and  _89
REMARK   40  A    between atoms: _89  and  _90
REMARK   41  A    between atoms: _93  and  _95
REMARK   42  A    between atoms: _95  and  _96
REMARK   43  A    between atoms: _98  and  _100
REMARK   44  A    between atoms: _100  and  _101
REMARK   45  A    between atoms: _100  and  _103
REMARK   46  A    between atoms: _103  and  _104
REMARK   47  A    between atoms: _106  and  _108
REMARK   48  A    between atoms: _108  and  _109
REMARK   49  A    between atoms: _108  and  _111
REMARK   50  A    between atoms: _111  and  _112
REMARK   51  A    between atoms: _114  and  _116
REMARK   52  A    between atoms: _116  and  _117
REMARK   53  A    between atoms: _116  and  _119
REMARK   54  A    between atoms: _119  and  _120
REMARK   55  A    between atoms: _125  and  _127
REMARK   56  A    between atoms: _127  and  _128
REMARK   57  A    between atoms: _127  and  _130
REMARK   58  A    between atoms: _130  and  _131
REMARK   59  A    between atoms: _136  and  _137
REMARK   60  A    between atoms: _139  and  _141
REMARK   61  A    between atoms: _141  and  _142
REMARK   62  A    between atoms: _141  and  _144
REMARK   63  A    between atoms: _148  and  _149
REMARK   64  A    between atoms: _154  and  _156
REMARK   65  A    between atoms: _156  and  _157
REMARK   66  A    between atoms: _156  and  _159
REMARK   67  A    between atoms: _159  and  _160
REMARK   68  A    between atoms: _165  and  _166
REMARK   69  A    between atoms: _168  and  _170
REMARK   70  A    between atoms: _170  and  _171
REMARK   71  A    between atoms: _170  and  _173
REMARK   72  A    between atoms: _173  and  _174
REMARK   73  A    between atoms: _177  and  _179
REMARK   74  A    between atoms: _179  and  _180
REMARK   75  A    between atoms: _179  and  _182
REMARK   76  A    between atoms: _182  and  _183
REMARK   77  A    between atoms: _183  and  _184
REMARK   78  A    between atoms: _189  and  _191
REMARK   79  A    between atoms: _191  and  _192
REMARK   80  A    between atoms: _194  and  _196
REMARK   81  A    between atoms: _196  and  _197
REMARK   82  A    between atoms: _196  and  _199
REMARK   83  A    between atoms: _199  and  _200
REMARK   84  A    between atoms: _200  and  _201
REMARK   85  A    between atoms: _201  and  _202
REMARK   86  A    between atoms: _202  and  _203
REMARK   87  A    between atoms: _207  and  _209
REMARK   88  A    between atoms: _209  and  _210
REMARK   89  A    between atoms: _209  and  _212
REMARK   90  A    between atoms: _212  and  _213
REMARK   91  A    between atoms: _223  and  _225
REMARK   92  A    between atoms: _225  and  _226
REMARK   93  A    between atoms: _225  and  _228
REMARK   94  A    between atoms: _228  and  _229
REMARK   95  A    between atoms: _232  and  _234
REMARK   96  A    between atoms: _234  and  _235
REMARK   97  A    between atoms: _234  and  _237
REMARK   98  A    between atoms: _237  and  _238
REMARK   99  A    between atoms: _238  and  _239
REMARK  100  A    between atoms: _239  and  _240
REMARK  101  A    between atoms: _240  and  _241
REMARK  102  A    between atoms: _245  and  _247
REMARK  103  A    between atoms: _247  and  _248
REMARK  104  A    between atoms: _247  and  _250
REMARK  105  A    between atoms: _250  and  _251
REMARK  106  A    between atoms: _257  and  _259
REMARK  107  A    between atoms: _259  and  _260
REMARK  108  A    between atoms: _259  and  _262
REMARK  109  A    between atoms: _262  and  _263
REMARK  110  A    between atoms: _269  and  _271
REMARK  111  A    between atoms: _271  and  _272
REMARK  112  A    between atoms: _271  and  _274
REMARK  113  A    between atoms: _274  and  _275
REMARK  114  A    between atoms: _278  and  _280
REMARK  115  A    between atoms: _280  and  _281
REMARK  116  A    between atoms: _280  and  _283
REMARK  117  A    between atoms: _283  and  _284
REMARK  118  A    between atoms: _286  and  _288
REMARK  119  A    between atoms: _288  and  _289
REMARK  120  A    between atoms: _288  and  _291
REMARK  121  A    between atoms: _291  and  _292
REMARK  122  A    between atoms: _302  and  _304
REMARK  123  A    between atoms: _304  and  _305
REMARK  124  A    between atoms: _307  and  _309
REMARK  125  A    between atoms: _309  and  _310
REMARK  126  A    between atoms: _309  and  _312
REMARK  127  A    between atoms: _312  and  _313
REMARK  128  A    between atoms: _316  and  _318
REMARK  129  A    between atoms: _318  and  _319
REMARK  130  A    between atoms: _318  and  _321
REMARK  131  A    between atoms: _321  and  _322
REMARK  132  A    between atoms: _325  and  _327
REMARK  133  A    between atoms: _327  and  _328
REMARK  134  A    between atoms: _327  and  _330
REMARK  135  A    between atoms: _330  and  _331
REMARK  136  A    between atoms: _334  and  _336
REMARK  137  A    between atoms: _336  and  _337
REMARK  138  A    between atoms: _340  and  _342
REMARK  139  A    between atoms: _342  and  _343
REMARK  140  A    between atoms: _342  and  _345
REMARK  141  A    between atoms: _345  and  _346
REMARK  142  A    between atoms: _351  and  _352
REMARK  143  A    between atoms: _354  and  _356
REMARK  144  A    between atoms: _356  and  _357
REMARK  145  A    between atoms: _360  and  _362
REMARK  146  A    between atoms: _362  and  _363
REMARK  147  A    between atoms: _362  and  _365
REMARK  148  A    between atoms: _365  and  _366
REMARK  149  A    between atoms: _366  and  _367
REMARK  150  A    between atoms: _370  and  _372
REMARK  151  A    between atoms: _372  and  _373
REMARK  152  A    between atoms: _372  and  _375
REMARK  153  A    between atoms: _375  and  _376
REMARK  154  A    between atoms: _379  and  _381
REMARK  155  A    between atoms: _381  and  _382
REMARK  156  A    between atoms: _385  and  _387
REMARK  157  A    between atoms: _387  and  _388
REMARK  158  A    between atoms: _387  and  _390
REMARK  159  A    between atoms: _390  and  _391
REMARK  160  A    between atoms: _391  and  _392
REMARK  161  A    between atoms: _392  and  _393
REMARK  162  A    between atoms: _403  and  _404
REMARK  163  A    between atoms: _409  and  _411
REMARK  164  A    between atoms: _411  and  _412
REMARK  165  A    between atoms: _411  and  _414
REMARK  166  A    between atoms: _414  and  _415
REMARK  167  A    between atoms: _418  and  _420
REMARK  168  A    between atoms: _420  and  _421
REMARK  169  A    between atoms: _420  and  _423
REMARK  170  A    between atoms: _423  and  _424
REMARK  171  A    between atoms: _427  and  _429
REMARK  172  A    between atoms: _429  and  _430
REMARK  173  A    between atoms: _429  and  _432
REMARK  174  A    between atoms: _432  and  _433
REMARK  175  A    between atoms: _433  and  _434
REMARK  176  A    between atoms: _434  and  _435
REMARK  177  A    between atoms: _444  and  _446
REMARK  178  A    between atoms: _446  and  _447
REMARK  179  A    between atoms: _446  and  _449
REMARK  180  A    between atoms: _449  and  _450
REMARK  181  A    between atoms: _460  and  _462
REMARK  182  A    between atoms: _462  and  _463
REMARK  183  A    between atoms: _462  and  _465
REMARK  184  A    between atoms: _465  and  _466
REMARK  185  A    between atoms: _471  and  _472
REMARK  186  A    between atoms: _474  and  _476
REMARK  187  A    between atoms: _476  and  _477
REMARK  188  A    between atoms: _476  and  _479
REMARK  189  A    between atoms: _479  and  _480
REMARK  190  A    between atoms: _480  and  _481
REMARK  191  A    between atoms: _481  and  _482
REMARK  192  A    between atoms: _482  and  _483
REMARK  193  A    between atoms: _487  and  _489
REMARK  194  A    between atoms: _489  and  _490
REMARK  195  A    between atoms: _489  and  _492
REMARK  196  A    between atoms: _492  and  _493
REMARK  197  A    between atoms: _496  and  _498
REMARK  198  A    between atoms: _498  and  _499
REMARK  199  A    between atoms: _498  and  _501
REMARK  200  A    between atoms: _504  and  _506
REMARK  201  A    between atoms: _506  and  _507
REMARK  202  A    between atoms: _506  and  _509
REMARK  203  A    between atoms: _509  and  _510
REMARK  204  A    between atoms: _513  and  _515
REMARK  205  A    between atoms: _515  and  _516
REMARK  206  A    between atoms: _515  and  _518
REMARK  207  A    between atoms: _518  and  _519
REMARK  208  A    between atoms: _521  and  _523
REMARK  209  A    between atoms: _523  and  _524
REMARK  210  A    between atoms: _526  and  _528
REMARK  211  A    between atoms: _528  and  _529
REMARK  212  A    between atoms: _528  and  _531
REMARK  213  A    between atoms: _531  and  _532
REMARK  214  A    between atoms: _535  and  _537
REMARK  215  A    between atoms: _537  and  _538
REMARK  216  A    between atoms: _537  and  _540
REMARK  217  A    between atoms: _540  and  _541
REMARK  218  A    between atoms: _544  and  _546
REMARK  219  A    between atoms: _546  and  _547
REMARK  220  A    between atoms: _546  and  _549
REMARK  221  A    between atoms: _549  and  _550
REMARK  222  A    between atoms: _555  and  _557
REMARK  223  A    between atoms: _557  and  _558
REMARK  224  A    between atoms: _557  and  _560
REMARK  225  A    between atoms: _560  and  _561
REMARK  226  A    between atoms: _564  and  _566
REMARK  227  A    between atoms: _566  and  _567
REMARK  228  A    between atoms: _566  and  _569
REMARK  229  A    between atoms: _569  and  _570
REMARK  230  A    between atoms: _570  and  _571
REMARK  231  A    between atoms: _571  and  _572
REMARK  232  A    between atoms: _581  and  _583
REMARK  233  A    between atoms: _583  and  _584
REMARK  234  A    between atoms: _586  and  _588
REMARK  235  A    between atoms: _588  and  _589
REMARK  236  A    between atoms: _588  and  _591
REMARK  237  A    between atoms: _591  and  _592
REMARK  238  A    between atoms: _592  and  _593
REMARK  239  A    between atoms: _596  and  _598
REMARK  240  A    between atoms: _598  and  _599
REMARK  241  A    between atoms: _598  and  _601
REMARK  242  A    between atoms: _601  and  _602
REMARK  243  A    between atoms: _602  and  _603
REMARK  244  A    between atoms: _603  and  _604
REMARK  245  A    between atoms: _614  and  _615
REMARK  246  A    between atoms: _620  and  _622
REMARK  247  A    between atoms: _622  and  _623
REMARK  248  A    between atoms: _622  and  _625
REMARK  249  A    between atoms: _628  and  _630
REMARK  250  A    between atoms: _630  and  _631
REMARK  251  A    between atoms: _630  and  _633
REMARK  252  A    between atoms: _633  and  _634
REMARK  253  A    between atoms: _634  and  _635
REMARK  254  A    between atoms: _638  and  _640
REMARK  255  A    between atoms: _640  and  _641
REMARK  256  A    between atoms: _640  and  _643
REMARK  257  A    between atoms: _643  and  _644
REMARK  258  A    between atoms: _644  and  _645
REMARK  259  A    between atoms: _645  and  _646
REMARK  260  A    between atoms: _646  and  _647
REMARK  261  A    between atoms: _651  and  _653
REMARK  262  A    between atoms: _653  and  _654
REMARK  263  A    between atoms: _657  and  _659
REMARK  264  A    between atoms: _659  and  _660
REMARK  265  A    between atoms: _659  and  _662
REMARK  266  A    between atoms: _662  and  _663
REMARK  267  A    between atoms: _665  and  _667
REMARK  268  A    between atoms: _667  and  _668
REMARK  269  A    between atoms: _667  and  _670
REMARK  270  A    between atoms: _670  and  _671
REMARK  271  A    between atoms: _671  and  _672
REMARK  272  A    between atoms: _677  and  _679
REMARK  273  A    between atoms: _679  and  _680
REMARK  274  A    between atoms: _679  and  _682
REMARK  275  A    between atoms: _682  and  _683
REMARK  276  A    between atoms: _685  and  _687
REMARK  277  A    between atoms: _687  and  _688
REMARK  278  A    between atoms: _687  and  _690
REMARK  279  A    between atoms: _690  and  _691
REMARK  280  A    between atoms: _694  and  _696
REMARK  281  A    between atoms: _696  and  _697
REMARK  282  A    between atoms: _696  and  _699
REMARK  283  A    between atoms: _699  and  _700
REMARK  284  A    between atoms: _703  and  _705
REMARK  285  A    between atoms: _705  and  _706
REMARK  286  A    between atoms: _705  and  _708
REMARK  287  A    between atoms: _711  and  _713
REMARK  288  A    between atoms: _713  and  _714
REMARK  289  A    between atoms: _716  and  _718
REMARK  290  A    between atoms: _718  and  _719
REMARK  291  A    between atoms: _722  and  _724
REMARK  292  A    between atoms: _724  and  _725
REMARK  293  A    between atoms: _724  and  _727
REMARK                            x       y       z     vdW  Elec       q    Type
REMARK                         _______ _______ _______ _____ _____    ______ ____
ROOT
ATOM      1  O   HOH     1      22.969  39.364  30.457  0.00  0.00    +0.000 OA
ENDROOT
TORSDOF 0
REMARK  Name = ../refined-set-2016/1m4h/1m4h_pocket.pdb
REMARK  293 active torsions:
REMARK  status: ('A' for Active; 'I' for Inactive)
REMARK    1  A    between atoms: _1  and  _3
REMARK    2  A    between atoms: _3  and  _4
REMARK    3  A    between atoms: _3  and  _6
REMARK    4  A    between atoms: _6  and  _7
REMARK    5  A    between atoms: _7  and  _8
REMARK    6  A    between atoms: _8  and  _9
REMARK    7  A    between atoms: _9  and  _10
REMARK    8  A    between atoms: _14  and  _16
REMARK    9  A    between atoms: _16  and  _17
REMARK   10  A    between atoms: _16  and  _19
REMARK   11  A    between atoms: _19  and  _20
REMARK   12  A    between atoms: _22  and  _24
REMARK   13  A    between atoms: _24  and  _25
REMARK   14  A    between atoms: _27  and  _29
REMARK   15  A    between atoms: _29  and  _30
REMARK   16  A    between atoms: _29  and  _32
REMARK   17  A    between atoms: _32  and  _33
REMARK   18  A    between atoms: _33  and  _34
REMARK   19  A    between atoms: _39  and  _41
REMARK   20  A    between atoms: _41  and  _42
REMARK   21  A    between atoms: _44  and  _46
REMARK   22  A    between atoms: _46  and  _47
REMARK   23  A    between atoms: _46  and  _49
REMARK   24  A    between atoms: _49  and  _50
REMARK   25  A    between atoms: _55  and  _56
REMARK   26  A    between atoms: _58  and  _60
REMARK   27  A    between atoms: _60  and  _61
REMARK   28  A    between atoms: _60  and  _63
REMARK   29  A    between atoms: _63  and  _64
REMARK   30  A    between atoms: _67  and  _69
REMARK   31  A    between atoms: _69  and  _70
REMARK   32  A    between atoms: _69  and  _72
REMARK   33  A    between atoms: _75  and  _77
REMARK   34  A    between atoms: _77  and  _78
REMARK   35  A    between atoms: _77  and  _80
REMARK   36  A    between atoms: _80  and  _81
REMARK   37  A    between atoms: _84  and  _86
REMARK   38  A    between atoms: _86  and  _87
REMARK   39  A    between atoms: _86  and  _89
REMARK   40  A    between atoms: _89  and  _90
REMARK   41  A    between atoms: _93  and  _95
REMARK   42  A    between atoms: _95  and  _96
REMARK   43  A    between atoms: _98  and  _100
REMARK   44  A    between atoms: _100  and  _101
REMARK   45  A    between atoms: _100  and  _103
REMARK   46  A    between atoms: _103  and  _104
REMARK   47  A    between atoms: _106  and  _108
REMARK   48  A    between atoms: _108  and  _109
REMARK   49  A    between atoms: _108  and  _111
REMARK   50  A    between atoms: _111  and  _112
REMARK   51  A    between atoms: _114  and  _116
REMARK   52  A    between atoms: _116  and  _117
REMARK   53  A    between atoms: _116  and  _119
REMARK   54  A    between atoms: _119  and  _120
REMARK   55  A    between atoms: _125  and  _127
REMARK   56  A    between atoms: _127  and  _128
REMARK   57  A    between atoms: _127  and  _130
REMARK   58  A    between atoms: _130  and  _131
REMARK   59  A    between atoms: _136  and  _137
REMARK   60  A    between atoms: _139  and  _141
REMARK   61  A    between atoms: _141  and  _142
REMARK   62  A    between atoms: _141  and  _144
REMARK   63  A    between atoms: _148  and  _149
REMARK   64  A    between atoms: _154  and  _156
REMARK   65  A    between atoms: _156  and  _157
REMARK   66  A    between atoms: _156  and  _159
REMARK   67  A    between atoms: _159  and  _160
REMARK   68  A    between atoms: _165  and  _166
REMARK   69  A    between atoms: _168  and  _170
REMARK   70  A    between atoms: _170  and  _171
REMARK   71  A    between atoms: _170  and  _173
REMARK   72  A    between atoms: _173  and  _174
REMARK   73  A    between atoms: _177  and  _179
REMARK   74  A    between atoms: _179  and  _180
REMARK   75  A    between atoms: _179  and  _182
REMARK   76  A    between atoms: _182  and  _183
REMARK   77  A    between atoms: _183  and  _184
REMARK   78  A    between atoms: _189  and  _191
REMARK   79  A    between atoms: _191  and  _192
REMARK   80  A    between atoms: _194  and  _196
REMARK   81  A    between atoms: _196  and  _197
REMARK   82  A    between atoms: _196  and  _199
REMARK   83  A    between atoms: _199  and  _200
REMARK   84  A    between atoms: _200  and  _201
REMARK   85  A    between atoms: _201  and  _202
REMARK   86  A    between atoms: _202  and  _203
REMARK   87  A    between atoms: _207  and  _209
REMARK   88  A    between atoms: _209  and  _210
REMARK   89  A    between atoms: _209  and  _212
REMARK   90  A    between atoms: _212  and  _213
REMARK   91  A    between atoms: _223  and  _225
REMARK   92  A    between atoms: _225  and  _226
REMARK   93  A    between atoms: _225  and  _228
REMARK   94  A    between atoms: _228  and  _229
REMARK   95  A    between atoms: _232  and  _234
REMARK   96  A    between atoms: _234  and  _235
REMARK   97  A    between atoms: _234  and  _237
REMARK   98  A    between atoms: _237  and  _238
REMARK   99  A    between atoms: _238  and  _239
REMARK  100  A    between atoms: _239  and  _240
REMARK  101  A    between atoms: _240  and  _241
REMARK  102  A    between atoms: _245  and  _247
REMARK  103  A    between atoms: _247  and  _248
REMARK  104  A    between atoms: _247  and  _250
REMARK  105  A    between atoms: _250  and  _251
REMARK  106  A    between atoms: _257  and  _259
REMARK  107  A    between atoms: _259  and  _260
REMARK  108  A    between atoms: _259  and  _262
REMARK  109  A    between atoms: _262  and  _263
REMARK  110  A    between atoms: _269  and  _271
REMARK  111  A    between atoms: _271  and  _272
REMARK  112  A    between atoms: _271  and  _274
REMARK  113  A    between atoms: _274  and  _275
REMARK  114  A    between atoms: _278  and  _280
REMARK  115  A    between atoms: _280  and  _281
REMARK  116  A    between atoms: _280  and  _283
REMARK  117  A    between atoms: _283  and  _284
REMARK  118  A    between atoms: _286  and  _288
REMARK  119  A    between atoms: _288  and  _289
REMARK  120  A    between atoms: _288  and  _291
REMARK  121  A    between atoms: _291  and  _292
REMARK  122  A    between atoms: _302  and  _304
REMARK  123  A    between atoms: _304  and  _305
REMARK  124  A    between atoms: _307  and  _309
REMARK  125  A    between atoms: _309  and  _310
REMARK  126  A    between atoms: _309  and  _312
REMARK  127  A    between atoms: _312  and  _313
REMARK  128  A    between atoms: _316  and  _318
REMARK  129  A    between atoms: _318  and  _319
REMARK  130  A    between atoms: _318  and  _321
REMARK  131  A    between atoms: _321  and  _322
REMARK  132  A    between atoms: _325  and  _327
REMARK  133  A    between atoms: _327  and  _328
REMARK  134  A    between atoms: _327  and  _330
REMARK  135  A    between atoms: _330  and  _331
REMARK  136  A    between atoms: _334  and  _336
REMARK  137  A    between atoms: _336  and  _337
REMARK  138  A    between atoms: _340  and  _342
REMARK  139  A    between atoms: _342  and  _343
REMARK  140  A    between atoms: _342  and  _345
REMARK  141  A    between atoms: _345  and  _346
REMARK  142  A    between atoms: _351  and  _352
REMARK  143  A    between atoms: _354  and  _356
REMARK  144  A    between atoms: _356  and  _357
REMARK  145  A    between atoms: _360  and  _362
REMARK  146  A    between atoms: _362  and  _363
REMARK  147  A    between atoms: _362  and  _365
REMARK  148  A    between atoms: _365  and  _366
REMARK  149  A    between atoms: _366  and  _367
REMARK  150  A    between atoms: _370  and  _372
REMARK  151  A    between atoms: _372  and  _373
REMARK  152  A    between atoms: _372  and  _375
REMARK  153  A    between atoms: _375  and  _376
REMARK  154  A    between atoms: _379  and  _381
REMARK  155  A    between atoms: _381  and  _382
REMARK  156  A    between atoms: _385  and  _387
REMARK  157  A    between atoms: _387  and  _388
REMARK  158  A    between atoms: _387  and  _390
REMARK  159  A    between atoms: _390  and  _391
REMARK  160  A    between atoms: _391  and  _392
REMARK  161  A    between atoms: _392  and  _393
REMARK  162  A    between atoms: _403  and  _404
REMARK  163  A    between atoms: _409  and  _411
REMARK  164  A    between atoms: _411  and  _412
REMARK  165  A    between atoms: _411  and  _414
REMARK  166  A    between atoms: _414  and  _415
REMARK  167  A    between atoms: _418  and  _420
REMARK  168  A    between atoms: _420  and  _421
REMARK  169  A    between atoms: _420  and  _423
REMARK  170  A    between atoms: _423  and  _424
REMARK  171  A    between atoms: _427  and  _429
REMARK  172  A    between atoms: _429  and  _430
REMARK  173  A    between atoms: _429  and  _432
REMARK  174  A    between atoms: _432  and  _433
REMARK  175  A    between atoms: _433  and  _434
REMARK  176  A    between atoms: _434  and  _435
REMARK  177  A    between atoms: _444  and  _446
REMARK  178  A    between atoms: _446  and  _447
REMARK  179  A    between atoms: _446  and  _449
REMARK  180  A    between atoms: _449  and  _450
REMARK  181  A    between atoms: _460  and  _462
REMARK  182  A    between atoms: _462  and  _463
REMARK  183  A    between atoms: _462  and  _465
REMARK  184  A    between atoms: _465  and  _466
REMARK  185  A    between atoms: _471  and  _472
REMARK  186  A    between atoms: _474  and  _476
REMARK  187  A    between atoms: _476  and  _477
REMARK  188  A    between atoms: _476  and  _479
REMARK  189  A    between atoms: _479  and  _480
REMARK  190  A    between atoms: _480  and  _481
REMARK  191  A    between atoms: _481  and  _482
REMARK  192  A    between atoms: _482  and  _483
REMARK  193  A    between atoms: _487  and  _489
REMARK  194  A    between atoms: _489  and  _490
REMARK  195  A    between atoms: _489  and  _492
REMARK  196  A    between atoms: _492  and  _493
REMARK  197  A    between atoms: _496  and  _498
REMARK  198  A    between atoms: _498  and  _499
REMARK  199  A    between atoms: _498  and  _501
REMARK  200  A    between atoms: _504  and  _506
REMARK  201  A    between atoms: _506  and  _507
REMARK  202  A    between atoms: _506  and  _509
REMARK  203  A    between atoms: _509  and  _510
REMARK  204  A    between atoms: _513  and  _515
REMARK  205  A    between atoms: _515  and  _516
REMARK  206  A    between atoms: _515  and  _518
REMARK  207  A    between atoms: _518  and  _519
REMARK  208  A    between atoms: _521  and  _523
REMARK  209  A    between atoms: _523  and  _524
REMARK  210  A    between atoms: _526  and  _528
REMARK  211  A    between atoms: _528  and  _529
REMARK  212  A    between atoms: _528  and  _531
REMARK  213  A    between atoms: _531  and  _532
REMARK  214  A    between atoms: _535  and  _537
REMARK  215  A    between atoms: _537  and  _538
REMARK  216  A    between atoms: _537  and  _540
REMARK  217  A    between atoms: _540  and  _541
REMARK  218  A    between atoms: _544  and  _546
REMARK  219  A    between atoms: _546  and  _547
REMARK  220  A    between atoms: _546  and  _549
REMARK  221  A    between atoms: _549  and  _550
REMARK  222  A    between atoms: _555  and  _557
REMARK  223  A    between atoms: _557  and  _558
REMARK  224  A    between atoms: _557  and  _560
REMARK  225  A    between atoms: _560  and  _561
REMARK  226  A    between atoms: _564  and  _566
REMARK  227  A    between atoms: _566  and  _567
REMARK  228  A    between atoms: _566  and  _569
REMARK  229  A    between atoms: _569  and  _570
REMARK  230  A    between atoms: _570  and  _571
REMARK  231  A    between atoms: _571  and  _572
REMARK  232  A    between atoms: _581  and  _583
REMARK  233  A    between atoms: _583  and  _584
REMARK  234  A    between atoms: _586  and  _588
REMARK  235  A    between atoms: _588  and  _589
REMARK  236  A    between atoms: _588  and  _591
REMARK  237  A    between atoms: _591  and  _592
REMARK  238  A    between atoms: _592  and  _593
REMARK  239  A    between atoms: _596  and  _598
REMARK  240  A    between atoms: _598  and  _599
REMARK  241  A    between atoms: _598  and  _601
REMARK  242  A    between atoms: _601  and  _602
REMARK  243  A    between atoms: _602  and  _603
REMARK  244  A    between atoms: _603  and  _604
REMARK  245  A    between atoms: _614  and  _615
REMARK  246  A    between atoms: _620  and  _622
REMARK  247  A    between atoms: _622  and  _623
REMARK  248  A    between atoms: _622  and  _625
REMARK  249  A    between atoms: _628  and  _630
REMARK  250  A    between atoms: _630  and  _631
REMARK  251  A    between atoms: _630  and  _633
REMARK  252  A    between atoms: _633  and  _634
REMARK  253  A    between atoms: _634  and  _635
REMARK  254  A    between atoms: _638  and  _640
REMARK  255  A    between atoms: _640  and  _641
REMARK  256  A    between atoms: _640  and  _643
REMARK  257  A    between atoms: _643  and  _644
REMARK  258  A    between atoms: _644  and  _645
REMARK  259  A    between atoms: _645  and  _646
REMARK  260  A    between atoms: _646  and  _647
REMARK  261  A    between atoms: _651  and  _653
REMARK  262  A    between atoms: _653  and  _654
REMARK  263  A    between atoms: _657  and  _659
REMARK  264  A    between atoms: _659  and  _660
REMARK  265  A    between atoms: _659  and  _662
REMARK  266  A    between atoms: _662  and  _663
REMARK  267  A    between atoms: _665  and  _667
REMARK  268  A    between atoms: _667  and  _668
REMARK  269  A    between atoms: _667  and  _670
REMARK  270  A    between atoms: _670  and  _671
REMARK  271  A    between atoms: _671  and  _672
REMARK  272  A    between atoms: _677  and  _679
REMARK  273  A    between atoms: _679  and  _680
REMARK  274  A    between atoms: _679  and  _682
REMARK  275  A    between atoms: _682  and  _683
REMARK  276  A    between atoms: _685  and  _687
REMARK  277  A    between atoms: _687  and  _688
REMARK  278  A    between atoms: _687  and  _690
REMARK  279  A    between atoms: _690  and  _691
REMARK  280  A    between atoms: _694  and  _696
REMARK  281  A    between atoms: _696  and  _697
REMARK  282  A    between atoms: _696  and  _699
REMARK  283  A    between atoms: _699  and  _700
REMARK  284  A    between atoms: _703  and  _705
REMARK  285  A    between atoms: _705  and  _706
REMARK  286  A    between atoms: _705  and  _708
REMARK  287  A    between atoms: _711  and  _713
REMARK  288  A    between atoms: _713  and  _714
REMARK  289  A    between atoms: _716  and  _718
REMARK  290  A    between atoms: _718  and  _719
REMARK  291  A    between atoms: _722  and  _724
REMARK  292  A    between atoms: _724  and  _725
REMARK  293  A    between atoms: _724  and  _727
REMARK                            x       y       z     vdW  Elec       q    Type
REMARK                         _______ _______ _______ _____ _____    ______ ____
ROOT
ATOM      1  O   HOH     1       8.234  28.430  27.016  0.00  0.00    +0.000 OA
ENDROOT
TORSDOF 0
REMARK  Name = ../refined-set-2016/1m4h/1m4h_pocket.pdb
REMARK  293 active torsions:
REMARK  status: ('A' for Active; 'I' for Inactive)
REMARK    1  A    between atoms: _1  and  _3
REMARK    2  A    between atoms: _3  and  _4
REMARK    3  A    between atoms: _3  and  _6
REMARK    4  A    between atoms: _6  and  _7
REMARK    5  A    between atoms: _7  and  _8
REMARK    6  A    between atoms: _8  and  _9
REMARK    7  A    between atoms: _9  and  _10
REMARK    8  A    between atoms: _14  and  _16
REMARK    9  A    between atoms: _16  and  _17
REMARK   10  A    between atoms: _16  and  _19
REMARK   11  A    between atoms: _19  and  _20
REMARK   12  A    between atoms: _22  and  _24
REMARK   13  A    between atoms: _24  and  _25
REMARK   14  A    between atoms: _27  and  _29
REMARK   15  A    between atoms: _29  and  _30
REMARK   16  A    between atoms: _29  and  _32
REMARK   17  A    between atoms: _32  and  _33
REMARK   18  A    between atoms: _33  and  _34
REMARK   19  A    between atoms: _39  and  _41
REMARK   20  A    between atoms: _41  and  _42
REMARK   21  A    between atoms: _44  and  _46
REMARK   22  A    between atoms: _46  and  _47
REMARK   23  A    between atoms: _46  and  _49
REMARK   24  A    between atoms: _49  and  _50
REMARK   25  A    between atoms: _55  and  _56
REMARK   26  A    between atoms: _58  and  _60
REMARK   27  A    between atoms: _60  and  _61
REMARK   28  A    between atoms: _60  and  _63
REMARK   29  A    between atoms: _63  and  _64
REMARK   30  A    between atoms: _67  and  _69
REMARK   31  A    between atoms: _69  and  _70
REMARK   32  A    between atoms: _69  and  _72
REMARK   33  A    between atoms: _75  and  _77
REMARK   34  A    between atoms: _77  and  _78
REMARK   35  A    between atoms: _77  and  _80
REMARK   36  A    between atoms: _80  and  _81
REMARK   37  A    between atoms: _84  and  _86
REMARK   38  A    between atoms: _86  and  _87
REMARK   39  A    between atoms: _86  and  _89
REMARK   40  A    between atoms: _89  and  _90
REMARK   41  A    between atoms: _93  and  _95
REMARK   42  A    between atoms: _95  and  _96
REMARK   43  A    between atoms: _98  and  _100
REMARK   44  A    between atoms: _100  and  _101
REMARK   45  A    between atoms: _100  and  _103
REMARK   46  A    between atoms: _103  and  _104
REMARK   47  A    between atoms: _106  and  _108
REMARK   48  A    between atoms: _108  and  _109
REMARK   49  A    between atoms: _108  and  _111
REMARK   50  A    between atoms: _111  and  _112
REMARK   51  A    between atoms: _114  and  _116
REMARK   52  A    between atoms: _116  and  _117
REMARK   53  A    between atoms: _116  and  _119
REMARK   54  A    between atoms: _119  and  _120
REMARK   55  A    between atoms: _125  and  _127
REMARK   56  A    between atoms: _127  and  _128
REMARK   57  A    between atoms: _127  and  _130
REMARK   58  A    between atoms: _130  and  _131
REMARK   59  A    between atoms: _136  and  _137
REMARK   60  A    between atoms: _139  and  _141
REMARK   61  A    between atoms: _141  and  _142
REMARK   62  A    between atoms: _141  and  _144
REMARK   63  A    between atoms: _148  and  _149
REMARK   64  A    between atoms: _154  and  _156
REMARK   65  A    between atoms: _156  and  _157
REMARK   66  A    between atoms: _156  and  _159
REMARK   67  A    between atoms: _159  and  _160
REMARK   68  A    between atoms: _165  and  _166
REMARK   69  A    between atoms: _168  and  _170
REMARK   70  A    between atoms: _170  and  _171
REMARK   71  A    between atoms: _170  and  _173
REMARK   72  A    between atoms: _173  and  _174
REMARK   73  A    between atoms: _177  and  _179
REMARK   74  A    between atoms: _179  and  _180
REMARK   75  A    between atoms: _179  and  _182
REMARK   76  A    between atoms: _182  and  _183
REMARK   77  A    between atoms: _183  and  _184
REMARK   78  A    between atoms: _189  and  _191
REMARK   79  A    between atoms: _191  and  _192
REMARK   80  A    between atoms: _194  and  _196
REMARK   81  A    between atoms: _196  and  _197
REMARK   82  A    between atoms: _196  and  _199
REMARK   83  A    between atoms: _199  and  _200
REMARK   84  A    between atoms: _200  and  _201
REMARK   85  A    between atoms: _201  and  _202
REMARK   86  A    between atoms: _202  and  _203
REMARK   87  A    between atoms: _207  and  _209
REMARK   88  A    between atoms: _209  and  _210
REMARK   89  A    between atoms: _209  and  _212
REMARK   90  A    between atoms: _212  and  _213
REMARK   91  A    between atoms: _223  and  _225
REMARK   92  A    between atoms: _225  and  _226
REMARK   93  A    between atoms: _225  and  _228
REMARK   94  A    between atoms: _228  and  _229
REMARK   95  A    between atoms: _232  and  _234
REMARK   96  A    between atoms: _234  and  _235
REMARK   97  A    between atoms: _234  and  _237
REMARK   98  A    between atoms: _237  and  _238
REMARK   99  A    between atoms: _238  and  _239
REMARK  100  A    between atoms: _239  and  _240
REMARK  101  A    between atoms: _240  and  _241
REMARK  102  A    between atoms: _245  and  _247
REMARK  103  A    between atoms: _247  and  _248
REMARK  104  A    between atoms: _247  and  _250
REMARK  105  A    between atoms: _250  and  _251
REMARK  106  A    between atoms: _257  and  _259
REMARK  107  A    between atoms: _259  and  _260
REMARK  108  A    between atoms: _259  and  _262
REMARK  109  A    between atoms: _262  and  _263
REMARK  110  A    between atoms: _269  and  _271
REMARK  111  A    between atoms: _271  and  _272
REMARK  112  A    between atoms: _271  and  _274
REMARK  113  A    between atoms: _274  and  _275
REMARK  114  A    between atoms: _278  and  _280
REMARK  115  A    between atoms: _280  and  _281
REMARK  116  A    between atoms: _280  and  _283
REMARK  117  A    between atoms: _283  and  _284
REMARK  118  A    between atoms: _286  and  _288
REMARK  119  A    between atoms: _288  and  _289
REMARK  120  A    between atoms: _288  and  _291
REMARK  121  A    between atoms: _291  and  _292
REMARK  122  A    between atoms: _302  and  _304
REMARK  123  A    between atoms: _304  and  _305
REMARK  124  A    between atoms: _307  and  _309
REMARK  125  A    between atoms: _309  and  _310
REMARK  126  A    between atoms: _309  and  _312
REMARK  127  A    between atoms: _312  and  _313
REMARK  128  A    between atoms: _316  and  _318
REMARK  129  A    between atoms: _318  and  _319
REMARK  130  A    between atoms: _318  and  _321
REMARK  131  A    between atoms: _321  and  _322
REMARK  132  A    between atoms: _325  and  _327
REMARK  133  A    between atoms: _327  and  _328
REMARK  134  A    between atoms: _327  and  _330
REMARK  135  A    between atoms: _330  and  _331
REMARK  136  A    between atoms: _334  and  _336
REMARK  137  A    between atoms: _336  and  _337
REMARK  138  A    between atoms: _340  and  _342
REMARK  139  A    between atoms: _342  and  _343
REMARK  140  A    between atoms: _342  and  _345
REMARK  141  A    between atoms: _345  and  _346
REMARK  142  A    between atoms: _351  and  _352
REMARK  143  A    between atoms: _354  and  _356
REMARK  144  A    between atoms: _356  and  _357
REMARK  145  A    between atoms: _360  and  _362
REMARK  146  A    between atoms: _362  and  _363
REMARK  147  A    between atoms: _362  and  _365
REMARK  148  A    between atoms: _365  and  _366
REMARK  149  A    between atoms: _366  and  _367
REMARK  150  A    between atoms: _370  and  _372
REMARK  151  A    between atoms: _372  and  _373
REMARK  152  A    between atoms: _372  and  _375
REMARK  153  A    between atoms: _375  and  _376
REMARK  154  A    between atoms: _379  and  _381
REMARK  155  A    between atoms: _381  and  _382
REMARK  156  A    between atoms: _385  and  _387
REMARK  157  A    between atoms: _387  and  _388
REMARK  158  A    between atoms: _387  and  _390
REMARK  159  A    between atoms: _390  and  _391
REMARK  160  A    between atoms: _391  and  _392
REMARK  161  A    between atoms: _392  and  _393
REMARK  162  A    between atoms: _403  and  _404
REMARK  163  A    between atoms: _409  and  _411
REMARK  164  A    between atoms: _411  and  _412
REMARK  165  A    between atoms: _411  and  _414
REMARK  166  A    between atoms: _414  and  _415
REMARK  167  A    between atoms: _418  and  _420
REMARK  168  A    between atoms: _420  and  _421
REMARK  169  A    between atoms: _420  and  _423
REMARK  170  A    between atoms: _423  and  _424
REMARK  171  A    between atoms: _427  and  _429
REMARK  172  A    between atoms: _429  and  _430
REMARK  173  A    between atoms: _429  and  _432
REMARK  174  A    between atoms: _432  and  _433
REMARK  175  A    between atoms: _433  and  _434
REMARK  176  A    between atoms: _434  and  _435
REMARK  177  A    between atoms: _444  and  _446
REMARK  178  A    between atoms: _446  and  _447
REMARK  179  A    between atoms: _446  and  _449
REMARK  180  A    between atoms: _449  and  _450
REMARK  181  A    between atoms: _460  and  _462
REMARK  182  A    between atoms: _462  and  _463
REMARK  183  A    between atoms: _462  and  _465
REMARK  184  A    between atoms: _465  and  _466
REMARK  185  A    between atoms: _471  and  _472
REMARK  186  A    between atoms: _474  and  _476
REMARK  187  A    between atoms: _476  and  _477
REMARK  188  A    between atoms: _476  and  _479
REMARK  189  A    between atoms: _479  and  _480
REMARK  190  A    between atoms: _480  and  _481
REMARK  191  A    between atoms: _481  and  _482
REMARK  192  A    between atoms: _482  and  _483
REMARK  193  A    between atoms: _487  and  _489
REMARK  194  A    between atoms: _489  and  _490
REMARK  195  A    between atoms: _489  and  _492
REMARK  196  A    between atoms: _492  and  _493
REMARK  197  A    between atoms: _496  and  _498
REMARK  198  A    between atoms: _498  and  _499
REMARK  199  A    between atoms: _498  and  _501
REMARK  200  A    between atoms: _504  and  _506
REMARK  201  A    between atoms: _506  and  _507
REMARK  202  A    between atoms: _506  and  _509
REMARK  203  A    between atoms: _509  and  _510
REMARK  204  A    between atoms: _513  and  _515
REMARK  205  A    between atoms: _515  and  _516
REMARK  206  A    between atoms: _515  and  _518
REMARK  207  A    between atoms: _518  and  _519
REMARK  208  A    between atoms: _521  and  _523
REMARK  209  A    between atoms: _523  and  _524
REMARK  210  A    between atoms: _526  and  _528
REMARK  211  A    between atoms: _528  and  _529
REMARK  212  A    between atoms: _528  and  _531
REMARK  213  A    between atoms: _531  and  _532
REMARK  214  A    between atoms: _535  and  _537
REMARK  215  A    between atoms: _537  and  _538
REMARK  216  A    between atoms: _537  and  _540
REMARK  217  A    between atoms: _540  and  _541
REMARK  218  A    between atoms: _544  and  _546
REMARK  219  A    between atoms: _546  and  _547
REMARK  220  A    between atoms: _546  and  _549
REMARK  221  A    between atoms: _549  and  _550
REMARK  222  A    between atoms: _555  and  _557
REMARK  223  A    between atoms: _557  and  _558
REMARK  224  A    between atoms: _557  and  _560
REMARK  225  A    between atoms: _560  and  _561
REMARK  226  A    between atoms: _564  and  _566
REMARK  227  A    between atoms: _566  and  _567
REMARK  228  A    between atoms: _566  and  _569
REMARK  229  A    between atoms: _569  and  _570
REMARK  230  A    between atoms: _570  and  _571
REMARK  231  A    between atoms: _571  and  _572
REMARK  232  A    between atoms: _581  and  _583
REMARK  233  A    between atoms: _583  and  _584
REMARK  234  A    between atoms: _586  and  _588
REMARK  235  A    between atoms: _588  and  _589
REMARK  236  A    between atoms: _588  and  _591
REMARK  237  A    between atoms: _591  and  _592
REMARK  238  A    between atoms: _592  and  _593
REMARK  239  A    between atoms: _596  and  _598
REMARK  240  A    between atoms: _598  and  _599
REMARK  241  A    between atoms: _598  and  _601
REMARK  242  A    between atoms: _601  and  _602
REMARK  243  A    between atoms: _602  and  _603
REMARK  244  A    between atoms: _603  and  _604
REMARK  245  A    between atoms: _614  and  _615
REMARK  246  A    between atoms: _620  and  _622
REMARK  247  A    between atoms: _622  and  _623
REMARK  248  A    between atoms: _622  and  _625
REMARK  249  A    between atoms: _628  and  _630
REMARK  250  A    between atoms: _630  and  _631
REMARK  251  A    between atoms: _630  and  _633
REMARK  252  A    between atoms: _633  and  _634
REMARK  253  A    between atoms: _634  and  _635
REMARK  254  A    between atoms: _638  and  _640
REMARK  255  A    between atoms: _640  and  _641
REMARK  256  A    between atoms: _640  and  _643
REMARK  257  A    between atoms: _643  and  _644
REMARK  258  A    between atoms: _644  and  _645
REMARK  259  A    between atoms: _645  and  _646
REMARK  260  A    between atoms: _646  and  _647
REMARK  261  A    between atoms: _651  and  _653
REMARK  262  A    between atoms: _653  and  _654
REMARK  263  A    between atoms: _657  and  _659
REMARK  264  A    between atoms: _659  and  _660
REMARK  265  A    between atoms: _659  and  _662
REMARK  266  A    between atoms: _662  and  _663
REMARK  267  A    between atoms: _665  and  _667
REMARK  268  A    between atoms: _667  and  _668
REMARK  269  A    between atoms: _667  and  _670
REMARK  270  A    between atoms: _670  and  _671
REMARK  271  A    between atoms: _671  and  _672
REMARK  272  A    between atoms: _677  and  _679
REMARK  273  A    between atoms: _679  and  _680
REMARK  274  A    between atoms: _679  and  _682
REMARK  275  A    between atoms: _682  and  _683
REMARK  276  A    between atoms: _685  and  _687
REMARK  277  A    between atoms: _687  and  _688
REMARK  278  A    between atoms: _687  and  _690
REMARK  279  A    between atoms: _690  and  _691
REMARK  280  A    between atoms: _694  and  _696
REMARK  281  A    between atoms: _696  and  _697
REMARK  282  A    between atoms: _696  and  _699
REMARK  283  A    between atoms: _699  and  _700
REMARK  284  A    between atoms: _703  and  _705
REMARK  285  A    between atoms: _705  and  _706
REMARK  286  A    between atoms: _705  and  _708
REMARK  287  A    between atoms: _711  and  _713
REMARK  288  A    between atoms: _713  and  _714
REMARK  289  A    between atoms: _716  and  _718
REMARK  290  A    between atoms: _718  and  _719
REMARK  291  A    between atoms: _722  and  _724
REMARK  292  A    between atoms: _724  and  _725
REMARK  293  A    between atoms: _724  and  _727
REMARK                            x       y       z     vdW  Elec       q    Type
REMARK                         _______ _______ _______ _____ _____    ______ ____
ROOT
ATOM      1  O   HOH     1      17.576  30.397  17.915  0.00  0.00    +0.000 OA
ENDROOT
TORSDOF 0
REMARK  Name = ../refined-set-2016/1m4h/1m4h_pocket.pdb
REMARK  293 active torsions:
REMARK  status: ('A' for Active; 'I' for Inactive)
REMARK    1  A    between atoms: _1  and  _3
REMARK    2  A    between atoms: _3  and  _4
REMARK    3  A    between atoms: _3  and  _6
REMARK    4  A    between atoms: _6  and  _7
REMARK    5  A    between atoms: _7  and  _8
REMARK    6  A    between atoms: _8  and  _9
REMARK    7  A    between atoms: _9  and  _10
REMARK    8  A    between atoms: _14  and  _16
REMARK    9  A    between atoms: _16  and  _17
REMARK   10  A    between atoms: _16  and  _19
REMARK   11  A    between atoms: _19  and  _20
REMARK   12  A    between atoms: _22  and  _24
REMARK   13  A    between atoms: _24  and  _25
REMARK   14  A    between atoms: _27  and  _29
REMARK   15  A    between atoms: _29  and  _30
REMARK   16  A    between atoms: _29  and  _32
REMARK   17  A    between atoms: _32  and  _33
REMARK   18  A    between atoms: _33  and  _34
REMARK   19  A    between atoms: _39  and  _41
REMARK   20  A    between atoms: _41  and  _42
REMARK   21  A    between atoms: _44  and  _46
REMARK   22  A    between atoms: _46  and  _47
REMARK   23  A    between atoms: _46  and  _49
REMARK   24  A    between atoms: _49  and  _50
REMARK   25  A    between atoms: _55  and  _56
REMARK   26  A    between atoms: _58  and  _60
REMARK   27  A    between atoms: _60  and  _61
REMARK   28  A    between atoms: _60  and  _63
REMARK   29  A    between atoms: _63  and  _64
REMARK   30  A    between atoms: _67  and  _69
REMARK   31  A    between atoms: _69  and  _70
REMARK   32  A    between atoms: _69  and  _72
REMARK   33  A    between atoms: _75  and  _77
REMARK   34  A    between atoms: _77  and  _78
REMARK   35  A    between atoms: _77  and  _80
REMARK   36  A    between atoms: _80  and  _81
REMARK   37  A    between atoms: _84  and  _86
REMARK   38  A    between atoms: _86  and  _87
REMARK   39  A    between atoms: _86  and  _89
REMARK   40  A    between atoms: _89  and  _90
REMARK   41  A    between atoms: _93  and  _95
REMARK   42  A    between atoms: _95  and  _96
REMARK   43  A    between atoms: _98  and  _100
REMARK   44  A    between atoms: _100  and  _101
REMARK   45  A    between atoms: _100  and  _103
REMARK   46  A    between atoms: _103  and  _104
REMARK   47  A    between atoms: _106  and  _108
REMARK   48  A    between atoms: _108  and  _109
REMARK   49  A    between atoms: _108  and  _111
REMARK   50  A    between atoms: _111  and  _112
REMARK   51  A    between atoms: _114  and  _116
REMARK   52  A    between atoms: _116  and  _117
REMARK   53  A    between atoms: _116  and  _119
REMARK   54  A    between atoms: _119  and  _120
REMARK   55  A    between atoms: _125  and  _127
REMARK   56  A    between atoms: _127  and  _128
REMARK   57  A    between atoms: _127  and  _130
REMARK   58  A    between atoms: _130  and  _131
REMARK   59  A    between atoms: _136  and  _137
REMARK   60  A    between atoms: _139  and  _141
REMARK   61  A    between atoms: _141  and  _142
REMARK   62  A    between atoms: _141  and  _144
REMARK   63  A    between atoms: _148  and  _149
REMARK   64  A    between atoms: _154  and  _156
REMARK   65  A    between atoms: _156  and  _157
REMARK   66  A    between atoms: _156  and  _159
REMARK   67  A    between atoms: _159  and  _160
REMARK   68  A    between atoms: _165  and  _166
REMARK   69  A    between atoms: _168  and  _170
REMARK   70  A    between atoms: _170  and  _171
REMARK   71  A    between atoms: _170  and  _173
REMARK   72  A    between atoms: _173  and  _174
REMARK   73  A    between atoms: _177  and  _179
REMARK   74  A    between atoms: _179  and  _180
REMARK   75  A    between atoms: _179  and  _182
REMARK   76  A    between atoms: _182  and  _183
REMARK   77  A    between atoms: _183  and  _184
REMARK   78  A    between atoms: _189  and  _191
REMARK   79  A    between atoms: _191  and  _192
REMARK   80  A    between atoms: _194  and  _196
REMARK   81  A    between atoms: _196  and  _197
REMARK   82  A    between atoms: _196  and  _199
REMARK   83  A    between atoms: _199  and  _200
REMARK   84  A    between atoms: _200  and  _201
REMARK   85  A    between atoms: _201  and  _202
REMARK   86  A    between atoms: _202  and  _203
REMARK   87  A    between atoms: _207  and  _209
REMARK   88  A    between atoms: _209  and  _210
REMARK   89  A    between atoms: _209  and  _212
REMARK   90  A    between atoms: _212  and  _213
REMARK   91  A    between atoms: _223  and  _225
REMARK   92  A    between atoms: _225  and  _226
REMARK   93  A    between atoms: _225  and  _228
REMARK   94  A    between atoms: _228  and  _229
REMARK   95  A    between atoms: _232  and  _234
REMARK   96  A    between atoms: _234  and  _235
REMARK   97  A    between atoms: _234  and  _237
REMARK   98  A    between atoms: _237  and  _238
REMARK   99  A    between atoms: _238  and  _239
REMARK  100  A    between atoms: _239  and  _240
REMARK  101  A    between atoms: _240  and  _241
REMARK  102  A    between atoms: _245  and  _247
REMARK  103  A    between atoms: _247  and  _248
REMARK  104  A    between atoms: _247  and  _250
REMARK  105  A    between atoms: _250  and  _251
REMARK  106  A    between atoms: _257  and  _259
REMARK  107  A    between atoms: _259  and  _260
REMARK  108  A    between atoms: _259  and  _262
REMARK  109  A    between atoms: _262  and  _263
REMARK  110  A    between atoms: _269  and  _271
REMARK  111  A    between atoms: _271  and  _272
REMARK  112  A    between atoms: _271  and  _274
REMARK  113  A    between atoms: _274  and  _275
REMARK  114  A    between atoms: _278  and  _280
REMARK  115  A    between atoms: _280  and  _281
REMARK  116  A    between atoms: _280  and  _283
REMARK  117  A    between atoms: _283  and  _284
REMARK  118  A    between atoms: _286  and  _288
REMARK  119  A    between atoms: _288  and  _289
REMARK  120  A    between atoms: _288  and  _291
REMARK  121  A    between atoms: _291  and  _292
REMARK  122  A    between atoms: _302  and  _304
REMARK  123  A    between atoms: _304  and  _305
REMARK  124  A    between atoms: _307  and  _309
REMARK  125  A    between atoms: _309  and  _310
REMARK  126  A    between atoms: _309  and  _312
REMARK  127  A    between atoms: _312  and  _313
REMARK  128  A    between atoms: _316  and  _318
REMARK  129  A    between atoms: _318  and  _319
REMARK  130  A    between atoms: _318  and  _321
REMARK  131  A    between atoms: _321  and  _322
REMARK  132  A    between atoms: _325  and  _327
REMARK  133  A    between atoms: _327  and  _328
REMARK  134  A    between atoms: _327  and  _330
REMARK  135  A    between atoms: _330  and  _331
REMARK  136  A    between atoms: _334  and  _336
REMARK  137  A    between atoms: _336  and  _337
REMARK  138  A    between atoms: _340  and  _342
REMARK  139  A    between atoms: _342  and  _343
REMARK  140  A    between atoms: _342  and  _345
REMARK  141  A    between atoms: _345  and  _346
REMARK  142  A    between atoms: _351  and  _352
REMARK  143  A    between atoms: _354  and  _356
REMARK  144  A    between atoms: _356  and  _357
REMARK  145  A    between atoms: _360  and  _362
REMARK  146  A    between atoms: _362  and  _363
REMARK  147  A    between atoms: _362  and  _365
REMARK  148  A    between atoms: _365  and  _366
REMARK  149  A    between atoms: _366  and  _367
REMARK  150  A    between atoms: _370  and  _372
REMARK  151  A    between atoms: _372  and  _373
REMARK  152  A    between atoms: _372  and  _375
REMARK  153  A    between atoms: _375  and  _376
REMARK  154  A    between atoms: _379  and  _381
REMARK  155  A    between atoms: _381  and  _382
REMARK  156  A    between atoms: _385  and  _387
REMARK  157  A    between atoms: _387  and  _388
REMARK  158  A    between atoms: _387  and  _390
REMARK  159  A    between atoms: _390  and  _391
REMARK  160  A    between atoms: _391  and  _392
REMARK  161  A    between atoms: _392  and  _393
REMARK  162  A    between atoms: _403  and  _404
REMARK  163  A    between atoms: _409  and  _411
REMARK  164  A    between atoms: _411  and  _412
REMARK  165  A    between atoms: _411  and  _414
REMARK  166  A    between atoms: _414  and  _415
REMARK  167  A    between atoms: _418  and  _420
REMARK  168  A    between atoms: _420  and  _421
REMARK  169  A    between atoms: _420  and  _423
REMARK  170  A    between atoms: _423  and  _424
REMARK  171  A    between atoms: _427  and  _429
REMARK  172  A    between atoms: _429  and  _430
REMARK  173  A    between atoms: _429  and  _432
REMARK  174  A    between atoms: _432  and  _433
REMARK  175  A    between atoms: _433  and  _434
REMARK  176  A    between atoms: _434  and  _435
REMARK  177  A    between atoms: _444  and  _446
REMARK  178  A    between atoms: _446  and  _447
REMARK  179  A    between atoms: _446  and  _449
REMARK  180  A    between atoms: _449  and  _450
REMARK  181  A    between atoms: _460  and  _462
REMARK  182  A    between atoms: _462  and  _463
REMARK  183  A    between atoms: _462  and  _465
REMARK  184  A    between atoms: _465  and  _466
REMARK  185  A    between atoms: _471  and  _472
REMARK  186  A    between atoms: _474  and  _476
REMARK  187  A    between atoms: _476  and  _477
REMARK  188  A    between atoms: _476  and  _479
REMARK  189  A    between atoms: _479  and  _480
REMARK  190  A    between atoms: _480  and  _481
REMARK  191  A    between atoms: _481  and  _482
REMARK  192  A    between atoms: _482  and  _483
REMARK  193  A    between atoms: _487  and  _489
REMARK  194  A    between atoms: _489  and  _490
REMARK  195  A    between atoms: _489  and  _492
REMARK  196  A    between atoms: _492  and  _493
REMARK  197  A    between atoms: _496  and  _498
REMARK  198  A    between atoms: _498  and  _499
REMARK  199  A    between atoms: _498  and  _501
REMARK  200  A    between atoms: _504  and  _506
REMARK  201  A    between atoms: _506  and  _507
REMARK  202  A    between atoms: _506  and  _509
REMARK  203  A    between atoms: _509  and  _510
REMARK  204  A    between atoms: _513  and  _515
REMARK  205  A    between atoms: _515  and  _516
REMARK  206  A    between atoms: _515  and  _518
REMARK  207  A    between atoms: _518  and  _519
REMARK  208  A    between atoms: _521  and  _523
REMARK  209  A    between atoms: _523  and  _524
REMARK  210  A    between atoms: _526  and  _528
REMARK  211  A    between atoms: _528  and  _529
REMARK  212  A    between atoms: _528  and  _531
REMARK  213  A    between atoms: _531  and  _532
REMARK  214  A    between atoms: _535  and  _537
REMARK  215  A    between atoms: _537  and  _538
REMARK  216  A    between atoms: _537  and  _540
REMARK  217  A    between atoms: _540  and  _541
REMARK  218  A    between atoms: _544  and  _546
REMARK  219  A    between atoms: _546  and  _547
REMARK  220  A    between atoms: _546  and  _549
REMARK  221  A    between atoms: _549  and  _550
REMARK  222  A    between atoms: _555  and  _557
REMARK  223  A    between atoms: _557  and  _558
REMARK  224  A    between atoms: _557  and  _560
REMARK  225  A    between atoms: _560  and  _561
REMARK  226  A    between atoms: _564  and  _566
REMARK  227  A    between atoms: _566  and  _567
REMARK  228  A    between atoms: _566  and  _569
REMARK  229  A    between atoms: _569  and  _570
REMARK  230  A    between atoms: _570  and  _571
REMARK  231  A    between atoms: _571  and  _572
REMARK  232  A    between atoms: _581  and  _583
REMARK  233  A    between atoms: _583  and  _584
REMARK  234  A    between atoms: _586  and  _588
REMARK  235  A    between atoms: _588  and  _589
REMARK  236  A    between atoms: _588  and  _591
REMARK  237  A    between atoms: _591  and  _592
REMARK  238  A    between atoms: _592  and  _593
REMARK  239  A    between atoms: _596  and  _598
REMARK  240  A    between atoms: _598  and  _599
REMARK  241  A    between atoms: _598  and  _601
REMARK  242  A    between atoms: _601  and  _602
REMARK  243  A    between atoms: _602  and  _603
REMARK  244  A    between atoms: _603  and  _604
REMARK  245  A    between atoms: _614  and  _615
REMARK  246  A    between atoms: _620  and  _622
REMARK  247  A    between atoms: _622  and  _623
REMARK  248  A    between atoms: _622  and  _625
REMARK  249  A    between atoms: _628  and  _630
REMARK  250  A    between atoms: _630  and  _631
REMARK  251  A    between atoms: _630  and  _633
REMARK  252  A    between atoms: _633  and  _634
REMARK  253  A    between atoms: _634  and  _635
REMARK  254  A    between atoms: _638  and  _640
REMARK  255  A    between atoms: _640  and  _641
REMARK  256  A    between atoms: _640  and  _643
REMARK  257  A    between atoms: _643  and  _644
REMARK  258  A    between atoms: _644  and  _645
REMARK  259  A    between atoms: _645  and  _646
REMARK  260  A    between atoms: _646  and  _647
REMARK  261  A    between atoms: _651  and  _653
REMARK  262  A    between atoms: _653  and  _654
REMARK  263  A    between atoms: _657  and  _659
REMARK  264  A    between atoms: _659  and  _660
REMARK  265  A    between atoms: _659  and  _662
REMARK  266  A    between atoms: _662  and  _663
REMARK  267  A    between atoms: _665  and  _667
REMARK  268  A    between atoms: _667  and  _668
REMARK  269  A    between atoms: _667  and  _670
REMARK  270  A    between atoms: _670  and  _671
REMARK  271  A    between atoms: _671  and  _672
REMARK  272  A    between atoms: _677  and  _679
REMARK  273  A    between atoms: _679  and  _680
REMARK  274  A    between atoms: _679  and  _682
REMARK  275  A    between atoms: _682  and  _683
REMARK  276  A    between atoms: _685  and  _687
REMARK  277  A    between atoms: _687  and  _688
REMARK  278  A    between atoms: _687  and  _690
REMARK  279  A    between atoms: _690  and  _691
REMARK  280  A    between atoms: _694  and  _696
REMARK  281  A    between atoms: _696  and  _697
REMARK  282  A    between atoms: _696  and  _699
REMARK  283  A    between atoms: _699  and  _700
REMARK  284  A    between atoms: _703  and  _705
REMARK  285  A    between atoms: _705  and  _706
REMARK  286  A    between atoms: _705  and  _708
REMARK  287  A    between atoms: _711  and  _713
REMARK  288  A    between atoms: _713  and  _714
REMARK  289  A    between atoms: _716  and  _718
REMARK  290  A    between atoms: _718  and  _719
REMARK  291  A    between atoms: _722  and  _724
REMARK  292  A    between atoms: _724  and  _725
REMARK  293  A    between atoms: _724  and  _727
REMARK                            x       y       z     vdW  Elec       q    Type
REMARK                         _______ _______ _______ _____ _____    ______ ____
ROOT
ATOM      1  O   HOH     1      31.385  34.978  24.507  0.00  0.00    +0.000 OA
ENDROOT
TORSDOF 0
REMARK  Name = ../refined-set-2016/1m4h/1m4h_pocket.pdb
REMARK  293 active torsions:
REMARK  status: ('A' for Active; 'I' for Inactive)
REMARK    1  A    between atoms: _1  and  _3
REMARK    2  A    between atoms: _3  and  _4
REMARK    3  A    between atoms: _3  and  _6
REMARK    4  A    between atoms: _6  and  _7
REMARK    5  A    between atoms: _7  and  _8
REMARK    6  A    between atoms: _8  and  _9
REMARK    7  A    between atoms: _9  and  _10
REMARK    8  A    between atoms: _14  and  _16
REMARK    9  A    between atoms: _16  and  _17
REMARK   10  A    between atoms: _16  and  _19
REMARK   11  A    between atoms: _19  and  _20
REMARK   12  A    between atoms: _22  and  _24
REMARK   13  A    between atoms: _24  and  _25
REMARK   14  A    between atoms: _27  and  _29
REMARK   15  A    between atoms: _29  and  _30
REMARK   16  A    between atoms: _29  and  _32
REMARK   17  A    between atoms: _32  and  _33
REMARK   18  A    between atoms: _33  and  _34
REMARK   19  A    between atoms: _39  and  _41
REMARK   20  A    between atoms: _41  and  _42
REMARK   21  A    between atoms: _44  and  _46
REMARK   22  A    between atoms: _46  and  _47
REMARK   23  A    between atoms: _46  and  _49
REMARK   24  A    between atoms: _49  and  _50
REMARK   25  A    between atoms: _55  and  _56
REMARK   26  A    between atoms: _58  and  _60
REMARK   27  A    between atoms: _60  and  _61
REMARK   28  A    between atoms: _60  and  _63
REMARK   29  A    between atoms: _63  and  _64
REMARK   30  A    between atoms: _67  and  _69
REMARK   31  A    between atoms: _69  and  _70
REMARK   32  A    between atoms: _69  and  _72
REMARK   33  A    between atoms: _75  and  _77
REMARK   34  A    between atoms: _77  and  _78
REMARK   35  A    between atoms: _77  and  _80
REMARK   36  A    between atoms: _80  and  _81
REMARK   37  A    between atoms: _84  and  _86
REMARK   38  A    between atoms: _86  and  _87
REMARK   39  A    between atoms: _86  and  _89
REMARK   40  A    between atoms: _89  and  _90
REMARK   41  A    between atoms: _93  and  _95
REMARK   42  A    between atoms: _95  and  _96
REMARK   43  A    between atoms: _98  and  _100
REMARK   44  A    between atoms: _100  and  _101
REMARK   45  A    between atoms: _100  and  _103
REMARK   46  A    between atoms: _103  and  _104
REMARK   47  A    between atoms: _106  and  _108
REMARK   48  A    between atoms: _108  and  _109
REMARK   49  A    between atoms: _108  and  _111
REMARK   50  A    between atoms: _111  and  _112
REMARK   51  A    between atoms: _114  and  _116
REMARK   52  A    between atoms: _116  and  _117
REMARK   53  A    between atoms: _116  and  _119
REMARK   54  A    between atoms: _119  and  _120
REMARK   55  A    between atoms: _125  and  _127
REMARK   56  A    between atoms: _127  and  _128
REMARK   57  A    between atoms: _127  and  _130
REMARK   58  A    between atoms: _130  and  _131
REMARK   59  A    between atoms: _136  and  _137
REMARK   60  A    between atoms: _139  and  _141
REMARK   61  A    between atoms: _141  and  _142
REMARK   62  A    between atoms: _141  and  _144
REMARK   63  A    between atoms: _148  and  _149
REMARK   64  A    between atoms: _154  and  _156
REMARK   65  A    between atoms: _156  and  _157
REMARK   66  A    between atoms: _156  and  _159
REMARK   67  A    between atoms: _159  and  _160
REMARK   68  A    between atoms: _165  and  _166
REMARK   69  A    between atoms: _168  and  _170
REMARK   70  A    between atoms: _170  and  _171
REMARK   71  A    between atoms: _170  and  _173
REMARK   72  A    between atoms: _173  and  _174
REMARK   73  A    between atoms: _177  and  _179
REMARK   74  A    between atoms: _179  and  _180
REMARK   75  A    between atoms: _179  and  _182
REMARK   76  A    between atoms: _182  and  _183
REMARK   77  A    between atoms: _183  and  _184
REMARK   78  A    between atoms: _189  and  _191
REMARK   79  A    between atoms: _191  and  _192
REMARK   80  A    between atoms: _194  and  _196
REMARK   81  A    between atoms: _196  and  _197
REMARK   82  A    between atoms: _196  and  _199
REMARK   83  A    between atoms: _199  and  _200
REMARK   84  A    between atoms: _200  and  _201
REMARK   85  A    between atoms: _201  and  _202
REMARK   86  A    between atoms: _202  and  _203
REMARK   87  A    between atoms: _207  and  _209
REMARK   88  A    between atoms: _209  and  _210
REMARK   89  A    between atoms: _209  and  _212
REMARK   90  A    between atoms: _212  and  _213
REMARK   91  A    between atoms: _223  and  _225
REMARK   92  A    between atoms: _225  and  _226
REMARK   93  A    between atoms: _225  and  _228
REMARK   94  A    between atoms: _228  and  _229
REMARK   95  A    between atoms: _232  and  _234
REMARK   96  A    between atoms: _234  and  _235
REMARK   97  A    between atoms: _234  and  _237
REMARK   98  A    between atoms: _237  and  _238
REMARK   99  A    between atoms: _238  and  _239
REMARK  100  A    between atoms: _239  and  _240
REMARK  101  A    between atoms: _240  and  _241
REMARK  102  A    between atoms: _245  and  _247
REMARK  103  A    between atoms: _247  and  _248
REMARK  104  A    between atoms: _247  and  _250
REMARK  105  A    between atoms: _250  and  _251
REMARK  106  A    between atoms: _257  and  _259
REMARK  107  A    between atoms: _259  and  _260
REMARK  108  A    between atoms: _259  and  _262
REMARK  109  A    between atoms: _262  and  _263
REMARK  110  A    between atoms: _269  and  _271
REMARK  111  A    between atoms: _271  and  _272
REMARK  112  A    between atoms: _271  and  _274
REMARK  113  A    between atoms: _274  and  _275
REMARK  114  A    between atoms: _278  and  _280
REMARK  115  A    between atoms: _280  and  _281
REMARK  116  A    between atoms: _280  and  _283
REMARK  117  A    between atoms: _283  and  _284
REMARK  118  A    between atoms: _286  and  _288
REMARK  119  A    between atoms: _288  and  _289
REMARK  120  A    between atoms: _288  and  _291
REMARK  121  A    between atoms: _291  and  _292
REMARK  122  A    between atoms: _302  and  _304
REMARK  123  A    between atoms: _304  and  _305
REMARK  124  A    between atoms: _307  and  _309
REMARK  125  A    between atoms: _309  and  _310
REMARK  126  A    between atoms: _309  and  _312
REMARK  127  A    between atoms: _312  and  _313
REMARK  128  A    between atoms: _316  and  _318
REMARK  129  A    between atoms: _318  and  _319
REMARK  130  A    between atoms: _318  and  _321
REMARK  131  A    between atoms: _321  and  _322
REMARK  132  A    between atoms: _325  and  _327
REMARK  133  A    between atoms: _327  and  _328
REMARK  134  A    between atoms: _327  and  _330
REMARK  135  A    between atoms: _330  and  _331
REMARK  136  A    between atoms: _334  and  _336
REMARK  137  A    between atoms: _336  and  _337
REMARK  138  A    between atoms: _340  and  _342
REMARK  139  A    between atoms: _342  and  _343
REMARK  140  A    between atoms: _342  and  _345
REMARK  141  A    between atoms: _345  and  _346
REMARK  142  A    between atoms: _351  and  _352
REMARK  143  A    between atoms: _354  and  _356
REMARK  144  A    between atoms: _356  and  _357
REMARK  145  A    between atoms: _360  and  _362
REMARK  146  A    between atoms: _362  and  _363
REMARK  147  A    between atoms: _362  and  _365
REMARK  148  A    between atoms: _365  and  _366
REMARK  149  A    between atoms: _366  and  _367
REMARK  150  A    between atoms: _370  and  _372
REMARK  151  A    between atoms: _372  and  _373
REMARK  152  A    between atoms: _372  and  _375
REMARK  153  A    between atoms: _375  and  _376
REMARK  154  A    between atoms: _379  and  _381
REMARK  155  A    between atoms: _381  and  _382
REMARK  156  A    between atoms: _385  and  _387
REMARK  157  A    between atoms: _387  and  _388
REMARK  158  A    between atoms: _387  and  _390
REMARK  159  A    between atoms: _390  and  _391
REMARK  160  A    between atoms: _391  and  _392
REMARK  161  A    between atoms: _392  and  _393
REMARK  162  A    between atoms: _403  and  _404
REMARK  163  A    between atoms: _409  and  _411
REMARK  164  A    between atoms: _411  and  _412
REMARK  165  A    between atoms: _411  and  _414
REMARK  166  A    between atoms: _414  and  _415
REMARK  167  A    between atoms: _418  and  _420
REMARK  168  A    between atoms: _420  and  _421
REMARK  169  A    between atoms: _420  and  _423
REMARK  170  A    between atoms: _423  and  _424
REMARK  171  A    between atoms: _427  and  _429
REMARK  172  A    between atoms: _429  and  _430
REMARK  173  A    between atoms: _429  and  _432
REMARK  174  A    between atoms: _432  and  _433
REMARK  175  A    between atoms: _433  and  _434
REMARK  176  A    between atoms: _434  and  _435
REMARK  177  A    between atoms: _444  and  _446
REMARK  178  A    between atoms: _446  and  _447
REMARK  179  A    between atoms: _446  and  _449
REMARK  180  A    between atoms: _449  and  _450
REMARK  181  A    between atoms: _460  and  _462
REMARK  182  A    between atoms: _462  and  _463
REMARK  183  A    between atoms: _462  and  _465
REMARK  184  A    between atoms: _465  and  _466
REMARK  185  A    between atoms: _471  and  _472
REMARK  186  A    between atoms: _474  and  _476
REMARK  187  A    between atoms: _476  and  _477
REMARK  188  A    between atoms: _476  and  _479
REMARK  189  A    between atoms: _479  and  _480
REMARK  190  A    between atoms: _480  and  _481
REMARK  191  A    between atoms: _481  and  _482
REMARK  192  A    between atoms: _482  and  _483
REMARK  193  A    between atoms: _487  and  _489
REMARK  194  A    between atoms: _489  and  _490
REMARK  195  A    between atoms: _489  and  _492
REMARK  196  A    between atoms: _492  and  _493
REMARK  197  A    between atoms: _496  and  _498
REMARK  198  A    between atoms: _498  and  _499
REMARK  199  A    between atoms: _498  and  _501
REMARK  200  A    between atoms: _504  and  _506
REMARK  201  A    between atoms: _506  and  _507
REMARK  202  A    between atoms: _506  and  _509
REMARK  203  A    between atoms: _509  and  _510
REMARK  204  A    between atoms: _513  and  _515
REMARK  205  A    between atoms: _515  and  _516
REMARK  206  A    between atoms: _515  and  _518
REMARK  207  A    between atoms: _518  and  _519
REMARK  208  A    between atoms: _521  and  _523
REMARK  209  A    between atoms: _523  and  _524
REMARK  210  A    between atoms: _526  and  _528
REMARK  211  A    between atoms: _528  and  _529
REMARK  212  A    between atoms: _528  and  _531
REMARK  213  A    between atoms: _531  and  _532
REMARK  214  A    between atoms: _535  and  _537
REMARK  215  A    between atoms: _537  and  _538
REMARK  216  A    between atoms: _537  and  _540
REMARK  217  A    between atoms: _540  and  _541
REMARK  218  A    between atoms: _544  and  _546
REMARK  219  A    between atoms: _546  and  _547
REMARK  220  A    between atoms: _546  and  _549
REMARK  221  A    between atoms: _549  and  _550
REMARK  222  A    between atoms: _555  and  _557
REMARK  223  A    between atoms: _557  and  _558
REMARK  224  A    between atoms: _557  and  _560
REMARK  225  A    between atoms: _560  and  _561
REMARK  226  A    between atoms: _564  and  _566
REMARK  227  A    between atoms: _566  and  _567
REMARK  228  A    between atoms: _566  and  _569
REMARK  229  A    between atoms: _569  and  _570
REMARK  230  A    between atoms: _570  and  _571
REMARK  231  A    between atoms: _571  and  _572
REMARK  232  A    between atoms: _581  and  _583
REMARK  233  A    between atoms: _583  and  _584
REMARK  234  A    between atoms: _586  and  _588
REMARK  235  A    between atoms: _588  and  _589
REMARK  236  A    between atoms: _588  and  _591
REMARK  237  A    between atoms: _591  and  _592
REMARK  238  A    between atoms: _592  and  _593
REMARK  239  A    between atoms: _596  and  _598
REMARK  240  A    between atoms: _598  and  _599
REMARK  241  A    between atoms: _598  and  _601
REMARK  242  A    between atoms: _601  and  _602
REMARK  243  A    between atoms: _602  and  _603
REMARK  244  A    between atoms: _603  and  _604
REMARK  245  A    between atoms: _614  and  _615
REMARK  246  A    between atoms: _620  and  _622
REMARK  247  A    between atoms: _622  and  _623
REMARK  248  A    between atoms: _622  and  _625
REMARK  249  A    between atoms: _628  and  _630
REMARK  250  A    between atoms: _630  and  _631
REMARK  251  A    between atoms: _630  and  _633
REMARK  252  A    between atoms: _633  and  _634
REMARK  253  A    between atoms: _634  and  _635
REMARK  254  A    between atoms: _638  and  _640
REMARK  255  A    between atoms: _640  and  _641
REMARK  256  A    between atoms: _640  and  _643
REMARK  257  A    between atoms: _643  and  _644
REMARK  258  A    between atoms: _644  and  _645
REMARK  259  A    between atoms: _645  and  _646
REMARK  260  A    between atoms: _646  and  _647
REMARK  261  A    between atoms: _651  and  _653
REMARK  262  A    between atoms: _653  and  _654
REMARK  263  A    between atoms: _657  and  _659
REMARK  264  A    between atoms: _659  and  _660
REMARK  265  A    between atoms: _659  and  _662
REMARK  266  A    between atoms: _662  and  _663
REMARK  267  A    between atoms: _665  and  _667
REMARK  268  A    between atoms: _667  and  _668
REMARK  269  A    between atoms: _667  and  _670
REMARK  270  A    between atoms: _670  and  _671
REMARK  271  A    between atoms: _671  and  _672
REMARK  272  A    between atoms: _677  and  _679
REMARK  273  A    between atoms: _679  and  _680
REMARK  274  A    between atoms: _679  and  _682
REMARK  275  A    between atoms: _682  and  _683
REMARK  276  A    between atoms: _685  and  _687
REMARK  277  A    between atoms: _687  and  _688
REMARK  278  A    between atoms: _687  and  _690
REMARK  279  A    between atoms: _690  and  _691
REMARK  280  A    between atoms: _694  and  _696
REMARK  281  A    between atoms: _696  and  _697
REMARK  282  A    between atoms: _696  and  _699
REMARK  283  A    between atoms: _699  and  _700
REMARK  284  A    between atoms: _703  and  _705
REMARK  285  A    between atoms: _705  and  _706
REMARK  286  A    between atoms: _705  and  _708
REMARK  287  A    between atoms: _711  and  _713
REMARK  288  A    between atoms: _713  and  _714
REMARK  289  A    between atoms: _716  and  _718
REMARK  290  A    between atoms: _718  and  _719
REMARK  291  A    between atoms: _722  and  _724
REMARK  292  A    between atoms: _724  and  _725
REMARK  293  A    between atoms: _724  and  _727
REMARK                            x       y       z     vdW  Elec       q    Type
REMARK                         _______ _______ _______ _____ _____    ______ ____
ROOT
ATOM      1  O   HOH     1      25.258  38.335  19.775  0.00  0.00    +0.000 OA
ENDROOT
TORSDOF 0
REMARK  Name = ../refined-set-2016/1m4h/1m4h_pocket.pdb
REMARK  293 active torsions:
REMARK  status: ('A' for Active; 'I' for Inactive)
REMARK    1  A    between atoms: _1  and  _3
REMARK    2  A    between atoms: _3  and  _4
REMARK    3  A    between atoms: _3  and  _6
REMARK    4  A    between atoms: _6  and  _7
REMARK    5  A    between atoms: _7  and  _8
REMARK    6  A    between atoms: _8  and  _9
REMARK    7  A    between atoms: _9  and  _10
REMARK    8  A    between atoms: _14  and  _16
REMARK    9  A    between atoms: _16  and  _17
REMARK   10  A    between atoms: _16  and  _19
REMARK   11  A    between atoms: _19  and  _20
REMARK   12  A    between atoms: _22  and  _24
REMARK   13  A    between atoms: _24  and  _25
REMARK   14  A    between atoms: _27  and  _29
REMARK   15  A    between atoms: _29  and  _30
REMARK   16  A    between atoms: _29  and  _32
REMARK   17  A    between atoms: _32  and  _33
REMARK   18  A    between atoms: _33  and  _34
REMARK   19  A    between atoms: _39  and  _41
REMARK   20  A    between atoms: _41  and  _42
REMARK   21  A    between atoms: _44  and  _46
REMARK   22  A    between atoms: _46  and  _47
REMARK   23  A    between atoms: _46  and  _49
REMARK   24  A    between atoms: _49  and  _50
REMARK   25  A    between atoms: _55  and  _56
REMARK   26  A    between atoms: _58  and  _60
REMARK   27  A    between atoms: _60  and  _61
REMARK   28  A    between atoms: _60  and  _63
REMARK   29  A    between atoms: _63  and  _64
REMARK   30  A    between atoms: _67  and  _69
REMARK   31  A    between atoms: _69  and  _70
REMARK   32  A    between atoms: _69  and  _72
REMARK   33  A    between atoms: _75  and  _77
REMARK   34  A    between atoms: _77  and  _78
REMARK   35  A    between atoms: _77  and  _80
REMARK   36  A    between atoms: _80  and  _81
REMARK   37  A    between atoms: _84  and  _86
REMARK   38  A    between atoms: _86  and  _87
REMARK   39  A    between atoms: _86  and  _89
REMARK   40  A    between atoms: _89  and  _90
REMARK   41  A    between atoms: _93  and  _95
REMARK   42  A    between atoms: _95  and  _96
REMARK   43  A    between atoms: _98  and  _100
REMARK   44  A    between atoms: _100  and  _101
REMARK   45  A    between atoms: _100  and  _103
REMARK   46  A    between atoms: _103  and  _104
REMARK   47  A    between atoms: _106  and  _108
REMARK   48  A    between atoms: _108  and  _109
REMARK   49  A    between atoms: _108  and  _111
REMARK   50  A    between atoms: _111  and  _112
REMARK   51  A    between atoms: _114  and  _116
REMARK   52  A    between atoms: _116  and  _117
REMARK   53  A    between atoms: _116  and  _119
REMARK   54  A    between atoms: _119  and  _120
REMARK   55  A    between atoms: _125  and  _127
REMARK   56  A    between atoms: _127  and  _128
REMARK   57  A    between atoms: _127  and  _130
REMARK   58  A    between atoms: _130  and  _131
REMARK   59  A    between atoms: _136  and  _137
REMARK   60  A    between atoms: _139  and  _141
REMARK   61  A    between atoms: _141  and  _142
REMARK   62  A    between atoms: _141  and  _144
REMARK   63  A    between atoms: _148  and  _149
REMARK   64  A    between atoms: _154  and  _156
REMARK   65  A    between atoms: _156  and  _157
REMARK   66  A    between atoms: _156  and  _159
REMARK   67  A    between atoms: _159  and  _160
REMARK   68  A    between atoms: _165  and  _166
REMARK   69  A    between atoms: _168  and  _170
REMARK   70  A    between atoms: _170  and  _171
REMARK   71  A    between atoms: _170  and  _173
REMARK   72  A    between atoms: _173  and  _174
REMARK   73  A    between atoms: _177  and  _179
REMARK   74  A    between atoms: _179  and  _180
REMARK   75  A    between atoms: _179  and  _182
REMARK   76  A    between atoms: _182  and  _183
REMARK   77  A    between atoms: _183  and  _184
REMARK   78  A    between atoms: _189  and  _191
REMARK   79  A    between atoms: _191  and  _192
REMARK   80  A    between atoms: _194  and  _196
REMARK   81  A    between atoms: _196  and  _197
REMARK   82  A    between atoms: _196  and  _199
REMARK   83  A    between atoms: _199  and  _200
REMARK   84  A    between atoms: _200  and  _201
REMARK   85  A    between atoms: _201  and  _202
REMARK   86  A    between atoms: _202  and  _203
REMARK   87  A    between atoms: _207  and  _209
REMARK   88  A    between atoms: _209  and  _210
REMARK   89  A    between atoms: _209  and  _212
REMARK   90  A    between atoms: _212  and  _213
REMARK   91  A    between atoms: _223  and  _225
REMARK   92  A    between atoms: _225  and  _226
REMARK   93  A    between atoms: _225  and  _228
REMARK   94  A    between atoms: _228  and  _229
REMARK   95  A    between atoms: _232  and  _234
REMARK   96  A    between atoms: _234  and  _235
REMARK   97  A    between atoms: _234  and  _237
REMARK   98  A    between atoms: _237  and  _238
REMARK   99  A    between atoms: _238  and  _239
REMARK  100  A    between atoms: _239  and  _240
REMARK  101  A    between atoms: _240  and  _241
REMARK  102  A    between atoms: _245  and  _247
REMARK  103  A    between atoms: _247  and  _248
REMARK  104  A    between atoms: _247  and  _250
REMARK  105  A    between atoms: _250  and  _251
REMARK  106  A    between atoms: _257  and  _259
REMARK  107  A    between atoms: _259  and  _260
REMARK  108  A    between atoms: _259  and  _262
REMARK  109  A    between atoms: _262  and  _263
REMARK  110  A    between atoms: _269  and  _271
REMARK  111  A    between atoms: _271  and  _272
REMARK  112  A    between atoms: _271  and  _274
REMARK  113  A    between atoms: _274  and  _275
REMARK  114  A    between atoms: _278  and  _280
REMARK  115  A    between atoms: _280  and  _281
REMARK  116  A    between atoms: _280  and  _283
REMARK  117  A    between atoms: _283  and  _284
REMARK  118  A    between atoms: _286  and  _288
REMARK  119  A    between atoms: _288  and  _289
REMARK  120  A    between atoms: _288  and  _291
REMARK  121  A    between atoms: _291  and  _292
REMARK  122  A    between atoms: _302  and  _304
REMARK  123  A    between atoms: _304  and  _305
REMARK  124  A    between atoms: _307  and  _309
REMARK  125  A    between atoms: _309  and  _310
REMARK  126  A    between atoms: _309  and  _312
REMARK  127  A    between atoms: _312  and  _313
REMARK  128  A    between atoms: _316  and  _318
REMARK  129  A    between atoms: _318  and  _319
REMARK  130  A    between atoms: _318  and  _321
REMARK  131  A    between atoms: _321  and  _322
REMARK  132  A    between atoms: _325  and  _327
REMARK  133  A    between atoms: _327  and  _328
REMARK  134  A    between atoms: _327  and  _330
REMARK  135  A    between atoms: _330  and  _331
REMARK  136  A    between atoms: _334  and  _336
REMARK  137  A    between atoms: _336  and  _337
REMARK  138  A    between atoms: _340  and  _342
REMARK  139  A    between atoms: _342  and  _343
REMARK  140  A    between atoms: _342  and  _345
REMARK  141  A    between atoms: _345  and  _346
REMARK  142  A    between atoms: _351  and  _352
REMARK  143  A    between atoms: _354  and  _356
REMARK  144  A    between atoms: _356  and  _357
REMARK  145  A    between atoms: _360  and  _362
REMARK  146  A    between atoms: _362  and  _363
REMARK  147  A    between atoms: _362  and  _365
REMARK  148  A    between atoms: _365  and  _366
REMARK  149  A    between atoms: _366  and  _367
REMARK  150  A    between atoms: _370  and  _372
REMARK  151  A    between atoms: _372  and  _373
REMARK  152  A    between atoms: _372  and  _375
REMARK  153  A    between atoms: _375  and  _376
REMARK  154  A    between atoms: _379  and  _381
REMARK  155  A    between atoms: _381  and  _382
REMARK  156  A    between atoms: _385  and  _387
REMARK  157  A    between atoms: _387  and  _388
REMARK  158  A    between atoms: _387  and  _390
REMARK  159  A    between atoms: _390  and  _391
REMARK  160  A    between atoms: _391  and  _392
REMARK  161  A    between atoms: _392  and  _393
REMARK  162  A    between atoms: _403  and  _404
REMARK  163  A    between atoms: _409  and  _411
REMARK  164  A    between atoms: _411  and  _412
REMARK  165  A    between atoms: _411  and  _414
REMARK  166  A    between atoms: _414  and  _415
REMARK  167  A    between atoms: _418  and  _420
REMARK  168  A    between atoms: _420  and  _421
REMARK  169  A    between atoms: _420  and  _423
REMARK  170  A    between atoms: _423  and  _424
REMARK  171  A    between atoms: _427  and  _429
REMARK  172  A    between atoms: _429  and  _430
REMARK  173  A    between atoms: _429  and  _432
REMARK  174  A    between atoms: _432  and  _433
REMARK  175  A    between atoms: _433  and  _434
REMARK  176  A    between atoms: _434  and  _435
REMARK  177  A    between atoms: _444  and  _446
REMARK  178  A    between atoms: _446  and  _447
REMARK  179  A    between atoms: _446  and  _449
REMARK  180  A    between atoms: _449  and  _450
REMARK  181  A    between atoms: _460  and  _462
REMARK  182  A    between atoms: _462  and  _463
REMARK  183  A    between atoms: _462  and  _465
REMARK  184  A    between atoms: _465  and  _466
REMARK  185  A    between atoms: _471  and  _472
REMARK  186  A    between atoms: _474  and  _476
REMARK  187  A    between atoms: _476  and  _477
REMARK  188  A    between atoms: _476  and  _479
REMARK  189  A    between atoms: _479  and  _480
REMARK  190  A    between atoms: _480  and  _481
REMARK  191  A    between atoms: _481  and  _482
REMARK  192  A    between atoms: _482  and  _483
REMARK  193  A    between atoms: _487  and  _489
REMARK  194  A    between atoms: _489  and  _490
REMARK  195  A    between atoms: _489  and  _492
REMARK  196  A    between atoms: _492  and  _493
REMARK  197  A    between atoms: _496  and  _498
REMARK  198  A    between atoms: _498  and  _499
REMARK  199  A    between atoms: _498  and  _501
REMARK  200  A    between atoms: _504  and  _506
REMARK  201  A    between atoms: _506  and  _507
REMARK  202  A    between atoms: _506  and  _509
REMARK  203  A    between atoms: _509  and  _510
REMARK  204  A    between atoms: _513  and  _515
REMARK  205  A    between atoms: _515  and  _516
REMARK  206  A    between atoms: _515  and  _518
REMARK  207  A    between atoms: _518  and  _519
REMARK  208  A    between atoms: _521  and  _523
REMARK  209  A    between atoms: _523  and  _524
REMARK  210  A    between atoms: _526  and  _528
REMARK  211  A    between atoms: _528  and  _529
REMARK  212  A    between atoms: _528  and  _531
REMARK  213  A    between atoms: _531  and  _532
REMARK  214  A    between atoms: _535  and  _537
REMARK  215  A    between atoms: _537  and  _538
REMARK  216  A    between atoms: _537  and  _540
REMARK  217  A    between atoms: _540  and  _541
REMARK  218  A    between atoms: _544  and  _546
REMARK  219  A    between atoms: _546  and  _547
REMARK  220  A    between atoms: _546  and  _549
REMARK  221  A    between atoms: _549  and  _550
REMARK  222  A    between atoms: _555  and  _557
REMARK  223  A    between atoms: _557  and  _558
REMARK  224  A    between atoms: _557  and  _560
REMARK  225  A    between atoms: _560  and  _561
REMARK  226  A    between atoms: _564  and  _566
REMARK  227  A    between atoms: _566  and  _567
REMARK  228  A    between atoms: _566  and  _569
REMARK  229  A    between atoms: _569  and  _570
REMARK  230  A    between atoms: _570  and  _571
REMARK  231  A    between atoms: _571  and  _572
REMARK  232  A    between atoms: _581  and  _583
REMARK  233  A    between atoms: _583  and  _584
REMARK  234  A    between atoms: _586  and  _588
REMARK  235  A    between atoms: _588  and  _589
REMARK  236  A    between atoms: _588  and  _591
REMARK  237  A    between atoms: _591  and  _592
REMARK  238  A    between atoms: _592  and  _593
REMARK  239  A    between atoms: _596  and  _598
REMARK  240  A    between atoms: _598  and  _599
REMARK  241  A    between atoms: _598  and  _601
REMARK  242  A    between atoms: _601  and  _602
REMARK  243  A    between atoms: _602  and  _603
REMARK  244  A    between atoms: _603  and  _604
REMARK  245  A    between atoms: _614  and  _615
REMARK  246  A    between atoms: _620  and  _622
REMARK  247  A    between atoms: _622  and  _623
REMARK  248  A    between atoms: _622  and  _625
REMARK  249  A    between atoms: _628  and  _630
REMARK  250  A    between atoms: _630  and  _631
REMARK  251  A    between atoms: _630  and  _633
REMARK  252  A    between atoms: _633  and  _634
REMARK  253  A    between atoms: _634  and  _635
REMARK  254  A    between atoms: _638  and  _640
REMARK  255  A    between atoms: _640  and  _641
REMARK  256  A    between atoms: _640  and  _643
REMARK  257  A    between atoms: _643  and  _644
REMARK  258  A    between atoms: _644  and  _645
REMARK  259  A    between atoms: _645  and  _646
REMARK  260  A    between atoms: _646  and  _647
REMARK  261  A    between atoms: _651  and  _653
REMARK  262  A    between atoms: _653  and  _654
REMARK  263  A    between atoms: _657  and  _659
REMARK  264  A    between atoms: _659  and  _660
REMARK  265  A    between atoms: _659  and  _662
REMARK  266  A    between atoms: _662  and  _663
REMARK  267  A    between atoms: _665  and  _667
REMARK  268  A    between atoms: _667  and  _668
REMARK  269  A    between atoms: _667  and  _670
REMARK  270  A    between atoms: _670  and  _671
REMARK  271  A    between atoms: _671  and  _672
REMARK  272  A    between atoms: _677  and  _679
REMARK  273  A    between atoms: _679  and  _680
REMARK  274  A    between atoms: _679  and  _682
REMARK  275  A    between atoms: _682  and  _683
REMARK  276  A    between atoms: _685  and  _687
REMARK  277  A    between atoms: _687  and  _688
REMARK  278  A    between atoms: _687  and  _690
REMARK  279  A    between atoms: _690  and  _691
REMARK  280  A    between atoms: _694  and  _696
REMARK  281  A    between atoms: _696  and  _697
REMARK  282  A    between atoms: _696  and  _699
REMARK  283  A    between atoms: _699  and  _700
REMARK  284  A    between atoms: _703  and  _705
REMARK  285  A    between atoms: _705  and  _706
REMARK  286  A    between atoms: _705  and  _708
REMARK  287  A    between atoms: _711  and  _713
REMARK  288  A    between atoms: _713  and  _714
REMARK  289  A    between atoms: _716  and  _718
REMARK  290  A    between atoms: _718  and  _719
REMARK  291  A    between atoms: _722  and  _724
REMARK  292  A    between atoms: _724  and  _725
REMARK  293  A    between atoms: _724  and  _727
REMARK                            x       y       z     vdW  Elec       q    Type
REMARK                         _______ _______ _______ _____ _____    ______ ____
ROOT
ATOM      1  O   HOH     1      21.400  30.131  28.809  0.00  0.00    +0.000 OA
ENDROOT
TORSDOF 0
REMARK  Name = ../refined-set-2016/1m4h/1m4h_pocket.pdb
REMARK  293 active torsions:
REMARK  status: ('A' for Active; 'I' for Inactive)
REMARK    1  A    between atoms: _1  and  _3
REMARK    2  A    between atoms: _3  and  _4
REMARK    3  A    between atoms: _3  and  _6
REMARK    4  A    between atoms: _6  and  _7
REMARK    5  A    between atoms: _7  and  _8
REMARK    6  A    between atoms: _8  and  _9
REMARK    7  A    between atoms: _9  and  _10
REMARK    8  A    between atoms: _14  and  _16
REMARK    9  A    between atoms: _16  and  _17
REMARK   10  A    between atoms: _16  and  _19
REMARK   11  A    between atoms: _19  and  _20
REMARK   12  A    between atoms: _22  and  _24
REMARK   13  A    between atoms: _24  and  _25
REMARK   14  A    between atoms: _27  and  _29
REMARK   15  A    between atoms: _29  and  _30
REMARK   16  A    between atoms: _29  and  _32
REMARK   17  A    between atoms: _32  and  _33
REMARK   18  A    between atoms: _33  and  _34
REMARK   19  A    between atoms: _39  and  _41
REMARK   20  A    between atoms: _41  and  _42
REMARK   21  A    between atoms: _44  and  _46
REMARK   22  A    between atoms: _46  and  _47
REMARK   23  A    between atoms: _46  and  _49
REMARK   24  A    between atoms: _49  and  _50
REMARK   25  A    between atoms: _55  and  _56
REMARK   26  A    between atoms: _58  and  _60
REMARK   27  A    between atoms: _60  and  _61
REMARK   28  A    between atoms: _60  and  _63
REMARK   29  A    between atoms: _63  and  _64
REMARK   30  A    between atoms: _67  and  _69
REMARK   31  A    between atoms: _69  and  _70
REMARK   32  A    between atoms: _69  and  _72
REMARK   33  A    between atoms: _75  and  _77
REMARK   34  A    between atoms: _77  and  _78
REMARK   35  A    between atoms: _77  and  _80
REMARK   36  A    between atoms: _80  and  _81
REMARK   37  A    between atoms: _84  and  _86
REMARK   38  A    between atoms: _86  and  _87
REMARK   39  A    between atoms: _86  and  _89
REMARK   40  A    between atoms: _89  and  _90
REMARK   41  A    between atoms: _93  and  _95
REMARK   42  A    between atoms: _95  and  _96
REMARK   43  A    between atoms: _98  and  _100
REMARK   44  A    between atoms: _100  and  _101
REMARK   45  A    between atoms: _100  and  _103
REMARK   46  A    between atoms: _103  and  _104
REMARK   47  A    between atoms: _106  and  _108
REMARK   48  A    between atoms: _108  and  _109
REMARK   49  A    between atoms: _108  and  _111
REMARK   50  A    between atoms: _111  and  _112
REMARK   51  A    between atoms: _114  and  _116
REMARK   52  A    between atoms: _116  and  _117
REMARK   53  A    between atoms: _116  and  _119
REMARK   54  A    between atoms: _119  and  _120
REMARK   55  A    between atoms: _125  and  _127
REMARK   56  A    between atoms: _127  and  _128
REMARK   57  A    between atoms: _127  and  _130
REMARK   58  A    between atoms: _130  and  _131
REMARK   59  A    between atoms: _136  and  _137
REMARK   60  A    between atoms: _139  and  _141
REMARK   61  A    between atoms: _141  and  _142
REMARK   62  A    between atoms: _141  and  _144
REMARK   63  A    between atoms: _148  and  _149
REMARK   64  A    between atoms: _154  and  _156
REMARK   65  A    between atoms: _156  and  _157
REMARK   66  A    between atoms: _156  and  _159
REMARK   67  A    between atoms: _159  and  _160
REMARK   68  A    between atoms: _165  and  _166
REMARK   69  A    between atoms: _168  and  _170
REMARK   70  A    between atoms: _170  and  _171
REMARK   71  A    between atoms: _170  and  _173
REMARK   72  A    between atoms: _173  and  _174
REMARK   73  A    between atoms: _177  and  _179
REMARK   74  A    between atoms: _179  and  _180
REMARK   75  A    between atoms: _179  and  _182
REMARK   76  A    between atoms: _182  and  _183
REMARK   77  A    between atoms: _183  and  _184
REMARK   78  A    between atoms: _189  and  _191
REMARK   79  A    between atoms: _191  and  _192
REMARK   80  A    between atoms: _194  and  _196
REMARK   81  A    between atoms: _196  and  _197
REMARK   82  A    between atoms: _196  and  _199
REMARK   83  A    between atoms: _199  and  _200
REMARK   84  A    between atoms: _200  and  _201
REMARK   85  A    between atoms: _201  and  _202
REMARK   86  A    between atoms: _202  and  _203
REMARK   87  A    between atoms: _207  and  _209
REMARK   88  A    between atoms: _209  and  _210
REMARK   89  A    between atoms: _209  and  _212
REMARK   90  A    between atoms: _212  and  _213
REMARK   91  A    between atoms: _223  and  _225
REMARK   92  A    between atoms: _225  and  _226
REMARK   93  A    between atoms: _225  and  _228
REMARK   94  A    between atoms: _228  and  _229
REMARK   95  A    between atoms: _232  and  _234
REMARK   96  A    between atoms: _234  and  _235
REMARK   97  A    between atoms: _234  and  _237
REMARK   98  A    between atoms: _237  and  _238
REMARK   99  A    between atoms: _238  and  _239
REMARK  100  A    between atoms: _239  and  _240
REMARK  101  A    between atoms: _240  and  _241
REMARK  102  A    between atoms: _245  and  _247
REMARK  103  A    between atoms: _247  and  _248
REMARK  104  A    between atoms: _247  and  _250
REMARK  105  A    between atoms: _250  and  _251
REMARK  106  A    between atoms: _257  and  _259
REMARK  107  A    between atoms: _259  and  _260
REMARK  108  A    between atoms: _259  and  _262
REMARK  109  A    between atoms: _262  and  _263
REMARK  110  A    between atoms: _269  and  _271
REMARK  111  A    between atoms: _271  and  _272
REMARK  112  A    between atoms: _271  and  _274
REMARK  113  A    between atoms: _274  and  _275
REMARK  114  A    between atoms: _278  and  _280
REMARK  115  A    between atoms: _280  and  _281
REMARK  116  A    between atoms: _280  and  _283
REMARK  117  A    between atoms: _283  and  _284
REMARK  118  A    between atoms: _286  and  _288
REMARK  119  A    between atoms: _288  and  _289
REMARK  120  A    between atoms: _288  and  _291
REMARK  121  A    between atoms: _291  and  _292
REMARK  122  A    between atoms: _302  and  _304
REMARK  123  A    between atoms: _304  and  _305
REMARK  124  A    between atoms: _307  and  _309
REMARK  125  A    between atoms: _309  and  _310
REMARK  126  A    between atoms: _309  and  _312
REMARK  127  A    between atoms: _312  and  _313
REMARK  128  A    between atoms: _316  and  _318
REMARK  129  A    between atoms: _318  and  _319
REMARK  130  A    between atoms: _318  and  _321
REMARK  131  A    between atoms: _321  and  _322
REMARK  132  A    between atoms: _325  and  _327
REMARK  133  A    between atoms: _327  and  _328
REMARK  134  A    between atoms: _327  and  _330
REMARK  135  A    between atoms: _330  and  _331
REMARK  136  A    between atoms: _334  and  _336
REMARK  137  A    between atoms: _336  and  _337
REMARK  138  A    between atoms: _340  and  _342
REMARK  139  A    between atoms: _342  and  _343
REMARK  140  A    between atoms: _342  and  _345
REMARK  141  A    between atoms: _345  and  _346
REMARK  142  A    between atoms: _351  and  _352
REMARK  143  A    between atoms: _354  and  _356
REMARK  144  A    between atoms: _356  and  _357
REMARK  145  A    between atoms: _360  and  _362
REMARK  146  A    between atoms: _362  and  _363
REMARK  147  A    between atoms: _362  and  _365
REMARK  148  A    between atoms: _365  and  _366
REMARK  149  A    between atoms: _366  and  _367
REMARK  150  A    between atoms: _370  and  _372
REMARK  151  A    between atoms: _372  and  _373
REMARK  152  A    between atoms: _372  and  _375
REMARK  153  A    between atoms: _375  and  _376
REMARK  154  A    between atoms: _379  and  _381
REMARK  155  A    between atoms: _381  and  _382
REMARK  156  A    between atoms: _385  and  _387
REMARK  157  A    between atoms: _387  and  _388
REMARK  158  A    between atoms: _387  and  _390
REMARK  159  A    between atoms: _390  and  _391
REMARK  160  A    between atoms: _391  and  _392
REMARK  161  A    between atoms: _392  and  _393
REMARK  162  A    between atoms: _403  and  _404
REMARK  163  A    between atoms: _409  and  _411
REMARK  164  A    between atoms: _411  and  _412
REMARK  165  A    between atoms: _411  and  _414
REMARK  166  A    between atoms: _414  and  _415
REMARK  167  A    between atoms: _418  and  _420
REMARK  168  A    between atoms: _420  and  _421
REMARK  169  A    between atoms: _420  and  _423
REMARK  170  A    between atoms: _423  and  _424
REMARK  171  A    between atoms: _427  and  _429
REMARK  172  A    between atoms: _429  and  _430
REMARK  173  A    between atoms: _429  and  _432
REMARK  174  A    between atoms: _432  and  _433
REMARK  175  A    between atoms: _433  and  _434
REMARK  176  A    between atoms: _434  and  _435
REMARK  177  A    between atoms: _444  and  _446
REMARK  178  A    between atoms: _446  and  _447
REMARK  179  A    between atoms: _446  and  _449
REMARK  180  A    between atoms: _449  and  _450
REMARK  181  A    between atoms: _460  and  _462
REMARK  182  A    between atoms: _462  and  _463
REMARK  183  A    between atoms: _462  and  _465
REMARK  184  A    between atoms: _465  and  _466
REMARK  185  A    between atoms: _471  and  _472
REMARK  186  A    between atoms: _474  and  _476
REMARK  187  A    between atoms: _476  and  _477
REMARK  188  A    between atoms: _476  and  _479
REMARK  189  A    between atoms: _479  and  _480
REMARK  190  A    between atoms: _480  and  _481
REMARK  191  A    between atoms: _481  and  _482
REMARK  192  A    between atoms: _482  and  _483
REMARK  193  A    between atoms: _487  and  _489
REMARK  194  A    between atoms: _489  and  _490
REMARK  195  A    between atoms: _489  and  _492
REMARK  196  A    between atoms: _492  and  _493
REMARK  197  A    between atoms: _496  and  _498
REMARK  198  A    between atoms: _498  and  _499
REMARK  199  A    between atoms: _498  and  _501
REMARK  200  A    between atoms: _504  and  _506
REMARK  201  A    between atoms: _506  and  _507
REMARK  202  A    between atoms: _506  and  _509
REMARK  203  A    between atoms: _509  and  _510
REMARK  204  A    between atoms: _513  and  _515
REMARK  205  A    between atoms: _515  and  _516
REMARK  206  A    between atoms: _515  and  _518
REMARK  207  A    between atoms: _518  and  _519
REMARK  208  A    between atoms: _521  and  _523
REMARK  209  A    between atoms: _523  and  _524
REMARK  210  A    between atoms: _526  and  _528
REMARK  211  A    between atoms: _528  and  _529
REMARK  212  A    between atoms: _528  and  _531
REMARK  213  A    between atoms: _531  and  _532
REMARK  214  A    between atoms: _535  and  _537
REMARK  215  A    between atoms: _537  and  _538
REMARK  216  A    between atoms: _537  and  _540
REMARK  217  A    between atoms: _540  and  _541
REMARK  218  A    between atoms: _544  and  _546
REMARK  219  A    between atoms: _546  and  _547
REMARK  220  A    between atoms: _546  and  _549
REMARK  221  A    between atoms: _549  and  _550
REMARK  222  A    between atoms: _555  and  _557
REMARK  223  A    between atoms: _557  and  _558
REMARK  224  A    between atoms: _557  and  _560
REMARK  225  A    between atoms: _560  and  _561
REMARK  226  A    between atoms: _564  and  _566
REMARK  227  A    between atoms: _566  and  _567
REMARK  228  A    between atoms: _566  and  _569
REMARK  229  A    between atoms: _569  and  _570
REMARK  230  A    between atoms: _570  and  _571
REMARK  231  A    between atoms: _571  and  _572
REMARK  232  A    between atoms: _581  and  _583
REMARK  233  A    between atoms: _583  and  _584
REMARK  234  A    between atoms: _586  and  _588
REMARK  235  A    between atoms: _588  and  _589
REMARK  236  A    between atoms: _588  and  _591
REMARK  237  A    between atoms: _591  and  _592
REMARK  238  A    between atoms: _592  and  _593
REMARK  239  A    between atoms: _596  and  _598
REMARK  240  A    between atoms: _598  and  _599
REMARK  241  A    between atoms: _598  and  _601
REMARK  242  A    between atoms: _601  and  _602
REMARK  243  A    between atoms: _602  and  _603
REMARK  244  A    between atoms: _603  and  _604
REMARK  245  A    between atoms: _614  and  _615
REMARK  246  A    between atoms: _620  and  _622
REMARK  247  A    between atoms: _622  and  _623
REMARK  248  A    between atoms: _622  and  _625
REMARK  249  A    between atoms: _628  and  _630
REMARK  250  A    between atoms: _630  and  _631
REMARK  251  A    between atoms: _630  and  _633
REMARK  252  A    between atoms: _633  and  _634
REMARK  253  A    between atoms: _634  and  _635
REMARK  254  A    between atoms: _638  and  _640
REMARK  255  A    between atoms: _640  and  _641
REMARK  256  A    between atoms: _640  and  _643
REMARK  257  A    between atoms: _643  and  _644
REMARK  258  A    between atoms: _644  and  _645
REMARK  259  A    between atoms: _645  and  _646
REMARK  260  A    between atoms: _646  and  _647
REMARK  261  A    between atoms: _651  and  _653
REMARK  262  A    between atoms: _653  and  _654
REMARK  263  A    between atoms: _657  and  _659
REMARK  264  A    between atoms: _659  and  _660
REMARK  265  A    between atoms: _659  and  _662
REMARK  266  A    between atoms: _662  and  _663
REMARK  267  A    between atoms: _665  and  _667
REMARK  268  A    between atoms: _667  and  _668
REMARK  269  A    between atoms: _667  and  _670
REMARK  270  A    between atoms: _670  and  _671
REMARK  271  A    between atoms: _671  and  _672
REMARK  272  A    between atoms: _677  and  _679
REMARK  273  A    between atoms: _679  and  _680
REMARK  274  A    between atoms: _679  and  _682
REMARK  275  A    between atoms: _682  and  _683
REMARK  276  A    between atoms: _685  and  _687
REMARK  277  A    between atoms: _687  and  _688
REMARK  278  A    between atoms: _687  and  _690
REMARK  279  A    between atoms: _690  and  _691
REMARK  280  A    between atoms: _694  and  _696
REMARK  281  A    between atoms: _696  and  _697
REMARK  282  A    between atoms: _696  and  _699
REMARK  283  A    between atoms: _699  and  _700
REMARK  284  A    between atoms: _703  and  _705
REMARK  285  A    between atoms: _705  and  _706
REMARK  286  A    between atoms: _705  and  _708
REMARK  287  A    between atoms: _711  and  _713
REMARK  288  A    between atoms: _713  and  _714
REMARK  289  A    between atoms: _716  and  _718
REMARK  290  A    between atoms: _718  and  _719
REMARK  291  A    between atoms: _722  and  _724
REMARK  292  A    between atoms: _724  and  _725
REMARK  293  A    between atoms: _724  and  _727
REMARK                            x       y       z     vdW  Elec       q    Type
REMARK                         _______ _______ _______ _____ _____    ______ ____
ROOT
ATOM      1  O   HOH     1      17.974  30.098  20.408  0.00  0.00    +0.000 OA
ENDROOT
TORSDOF 0
REMARK  Name = ../refined-set-2016/1m4h/1m4h_pocket.pdb
REMARK  293 active torsions:
REMARK  status: ('A' for Active; 'I' for Inactive)
REMARK    1  A    between atoms: _1  and  _3
REMARK    2  A    between atoms: _3  and  _4
REMARK    3  A    between atoms: _3  and  _6
REMARK    4  A    between atoms: _6  and  _7
REMARK    5  A    between atoms: _7  and  _8
REMARK    6  A    between atoms: _8  and  _9
REMARK    7  A    between atoms: _9  and  _10
REMARK    8  A    between atoms: _14  and  _16
REMARK    9  A    between atoms: _16  and  _17
REMARK   10  A    between atoms: _16  and  _19
REMARK   11  A    between atoms: _19  and  _20
REMARK   12  A    between atoms: _22  and  _24
REMARK   13  A    between atoms: _24  and  _25
REMARK   14  A    between atoms: _27  and  _29
REMARK   15  A    between atoms: _29  and  _30
REMARK   16  A    between atoms: _29  and  _32
REMARK   17  A    between atoms: _32  and  _33
REMARK   18  A    between atoms: _33  and  _34
REMARK   19  A    between atoms: _39  and  _41
REMARK   20  A    between atoms: _41  and  _42
REMARK   21  A    between atoms: _44  and  _46
REMARK   22  A    between atoms: _46  and  _47
REMARK   23  A    between atoms: _46  and  _49
REMARK   24  A    between atoms: _49  and  _50
REMARK   25  A    between atoms: _55  and  _56
REMARK   26  A    between atoms: _58  and  _60
REMARK   27  A    between atoms: _60  and  _61
REMARK   28  A    between atoms: _60  and  _63
REMARK   29  A    between atoms: _63  and  _64
REMARK   30  A    between atoms: _67  and  _69
REMARK   31  A    between atoms: _69  and  _70
REMARK   32  A    between atoms: _69  and  _72
REMARK   33  A    between atoms: _75  and  _77
REMARK   34  A    between atoms: _77  and  _78
REMARK   35  A    between atoms: _77  and  _80
REMARK   36  A    between atoms: _80  and  _81
REMARK   37  A    between atoms: _84  and  _86
REMARK   38  A    between atoms: _86  and  _87
REMARK   39  A    between atoms: _86  and  _89
REMARK   40  A    between atoms: _89  and  _90
REMARK   41  A    between atoms: _93  and  _95
REMARK   42  A    between atoms: _95  and  _96
REMARK   43  A    between atoms: _98  and  _100
REMARK   44  A    between atoms: _100  and  _101
REMARK   45  A    between atoms: _100  and  _103
REMARK   46  A    between atoms: _103  and  _104
REMARK   47  A    between atoms: _106  and  _108
REMARK   48  A    between atoms: _108  and  _109
REMARK   49  A    between atoms: _108  and  _111
REMARK   50  A    between atoms: _111  and  _112
REMARK   51  A    between atoms: _114  and  _116
REMARK   52  A    between atoms: _116  and  _117
REMARK   53  A    between atoms: _116  and  _119
REMARK   54  A    between atoms: _119  and  _120
REMARK   55  A    between atoms: _125  and  _127
REMARK   56  A    between atoms: _127  and  _128
REMARK   57  A    between atoms: _127  and  _130
REMARK   58  A    between atoms: _130  and  _131
REMARK   59  A    between atoms: _136  and  _137
REMARK   60  A    between atoms: _139  and  _141
REMARK   61  A    between atoms: _141  and  _142
REMARK   62  A    between atoms: _141  and  _144
REMARK   63  A    between atoms: _148  and  _149
REMARK   64  A    between atoms: _154  and  _156
REMARK   65  A    between atoms: _156  and  _157
REMARK   66  A    between atoms: _156  and  _159
REMARK   67  A    between atoms: _159  and  _160
REMARK   68  A    between atoms: _165  and  _166
REMARK   69  A    between atoms: _168  and  _170
REMARK   70  A    between atoms: _170  and  _171
REMARK   71  A    between atoms: _170  and  _173
REMARK   72  A    between atoms: _173  and  _174
REMARK   73  A    between atoms: _177  and  _179
REMARK   74  A    between atoms: _179  and  _180
REMARK   75  A    between atoms: _179  and  _182
REMARK   76  A    between atoms: _182  and  _183
REMARK   77  A    between atoms: _183  and  _184
REMARK   78  A    between atoms: _189  and  _191
REMARK   79  A    between atoms: _191  and  _192
REMARK   80  A    between atoms: _194  and  _196
REMARK   81  A    between atoms: _196  and  _197
REMARK   82  A    between atoms: _196  and  _199
REMARK   83  A    between atoms: _199  and  _200
REMARK   84  A    between atoms: _200  and  _201
REMARK   85  A    between atoms: _201  and  _202
REMARK   86  A    between atoms: _202  and  _203
REMARK   87  A    between atoms: _207  and  _209
REMARK   88  A    between atoms: _209  and  _210
REMARK   89  A    between atoms: _209  and  _212
REMARK   90  A    between atoms: _212  and  _213
REMARK   91  A    between atoms: _223  and  _225
REMARK   92  A    between atoms: _225  and  _226
REMARK   93  A    between atoms: _225  and  _228
REMARK   94  A    between atoms: _228  and  _229
REMARK   95  A    between atoms: _232  and  _234
REMARK   96  A    between atoms: _234  and  _235
REMARK   97  A    between atoms: _234  and  _237
REMARK   98  A    between atoms: _237  and  _238
REMARK   99  A    between atoms: _238  and  _239
REMARK  100  A    between atoms: _239  and  _240
REMARK  101  A    between atoms: _240  and  _241
REMARK  102  A    between atoms: _245  and  _247
REMARK  103  A    between atoms: _247  and  _248
REMARK  104  A    between atoms: _247  and  _250
REMARK  105  A    between atoms: _250  and  _251
REMARK  106  A    between atoms: _257  and  _259
REMARK  107  A    between atoms: _259  and  _260
REMARK  108  A    between atoms: _259  and  _262
REMARK  109  A    between atoms: _262  and  _263
REMARK  110  A    between atoms: _269  and  _271
REMARK  111  A    between atoms: _271  and  _272
REMARK  112  A    between atoms: _271  and  _274
REMARK  113  A    between atoms: _274  and  _275
REMARK  114  A    between atoms: _278  and  _280
REMARK  115  A    between atoms: _280  and  _281
REMARK  116  A    between atoms: _280  and  _283
REMARK  117  A    between atoms: _283  and  _284
REMARK  118  A    between atoms: _286  and  _288
REMARK  119  A    between atoms: _288  and  _289
REMARK  120  A    between atoms: _288  and  _291
REMARK  121  A    between atoms: _291  and  _292
REMARK  122  A    between atoms: _302  and  _304
REMARK  123  A    between atoms: _304  and  _305
REMARK  124  A    between atoms: _307  and  _309
REMARK  125  A    between atoms: _309  and  _310
REMARK  126  A    between atoms: _309  and  _312
REMARK  127  A    between atoms: _312  and  _313
REMARK  128  A    between atoms: _316  and  _318
REMARK  129  A    between atoms: _318  and  _319
REMARK  130  A    between atoms: _318  and  _321
REMARK  131  A    between atoms: _321  and  _322
REMARK  132  A    between atoms: _325  and  _327
REMARK  133  A    between atoms: _327  and  _328
REMARK  134  A    between atoms: _327  and  _330
REMARK  135  A    between atoms: _330  and  _331
REMARK  136  A    between atoms: _334  and  _336
REMARK  137  A    between atoms: _336  and  _337
REMARK  138  A    between atoms: _340  and  _342
REMARK  139  A    between atoms: _342  and  _343
REMARK  140  A    between atoms: _342  and  _345
REMARK  141  A    between atoms: _345  and  _346
REMARK  142  A    between atoms: _351  and  _352
REMARK  143  A    between atoms: _354  and  _356
REMARK  144  A    between atoms: _356  and  _357
REMARK  145  A    between atoms: _360  and  _362
REMARK  146  A    between atoms: _362  and  _363
REMARK  147  A    between atoms: _362  and  _365
REMARK  148  A    between atoms: _365  and  _366
REMARK  149  A    between atoms: _366  and  _367
REMARK  150  A    between atoms: _370  and  _372
REMARK  151  A    between atoms: _372  and  _373
REMARK  152  A    between atoms: _372  and  _375
REMARK  153  A    between atoms: _375  and  _376
REMARK  154  A    between atoms: _379  and  _381
REMARK  155  A    between atoms: _381  and  _382
REMARK  156  A    between atoms: _385  and  _387
REMARK  157  A    between atoms: _387  and  _388
REMARK  158  A    between atoms: _387  and  _390
REMARK  159  A    between atoms: _390  and  _391
REMARK  160  A    between atoms: _391  and  _392
REMARK  161  A    between atoms: _392  and  _393
REMARK  162  A    between atoms: _403  and  _404
REMARK  163  A    between atoms: _409  and  _411
REMARK  164  A    between atoms: _411  and  _412
REMARK  165  A    between atoms: _411  and  _414
REMARK  166  A    between atoms: _414  and  _415
REMARK  167  A    between atoms: _418  and  _420
REMARK  168  A    between atoms: _420  and  _421
REMARK  169  A    between atoms: _420  and  _423
REMARK  170  A    between atoms: _423  and  _424
REMARK  171  A    between atoms: _427  and  _429
REMARK  172  A    between atoms: _429  and  _430
REMARK  173  A    between atoms: _429  and  _432
REMARK  174  A    between atoms: _432  and  _433
REMARK  175  A    between atoms: _433  and  _434
REMARK  176  A    between atoms: _434  and  _435
REMARK  177  A    between atoms: _444  and  _446
REMARK  178  A    between atoms: _446  and  _447
REMARK  179  A    between atoms: _446  and  _449
REMARK  180  A    between atoms: _449  and  _450
REMARK  181  A    between atoms: _460  and  _462
REMARK  182  A    between atoms: _462  and  _463
REMARK  183  A    between atoms: _462  and  _465
REMARK  184  A    between atoms: _465  and  _466
REMARK  185  A    between atoms: _471  and  _472
REMARK  186  A    between atoms: _474  and  _476
REMARK  187  A    between atoms: _476  and  _477
REMARK  188  A    between atoms: _476  and  _479
REMARK  189  A    between atoms: _479  and  _480
REMARK  190  A    between atoms: _480  and  _481
REMARK  191  A    between atoms: _481  and  _482
REMARK  192  A    between atoms: _482  and  _483
REMARK  193  A    between atoms: _487  and  _489
REMARK  194  A    between atoms: _489  and  _490
REMARK  195  A    between atoms: _489  and  _492
REMARK  196  A    between atoms: _492  and  _493
REMARK  197  A    between atoms: _496  and  _498
REMARK  198  A    between atoms: _498  and  _499
REMARK  199  A    between atoms: _498  and  _501
REMARK  200  A    between atoms: _504  and  _506
REMARK  201  A    between atoms: _506  and  _507
REMARK  202  A    between atoms: _506  and  _509
REMARK  203  A    between atoms: _509  and  _510
REMARK  204  A    between atoms: _513  and  _515
REMARK  205  A    between atoms: _515  and  _516
REMARK  206  A    between atoms: _515  and  _518
REMARK  207  A    between atoms: _518  and  _519
REMARK  208  A    between atoms: _521  and  _523
REMARK  209  A    between atoms: _523  and  _524
REMARK  210  A    between atoms: _526  and  _528
REMARK  211  A    between atoms: _528  and  _529
REMARK  212  A    between atoms: _528  and  _531
REMARK  213  A    between atoms: _531  and  _532
REMARK  214  A    between atoms: _535  and  _537
REMARK  215  A    between atoms: _537  and  _538
REMARK  216  A    between atoms: _537  and  _540
REMARK  217  A    between atoms: _540  and  _541
REMARK  218  A    between atoms: _544  and  _546
REMARK  219  A    between atoms: _546  and  _547
REMARK  220  A    between atoms: _546  and  _549
REMARK  221  A    between atoms: _549  and  _550
REMARK  222  A    between atoms: _555  and  _557
REMARK  223  A    between atoms: _557  and  _558
REMARK  224  A    between atoms: _557  and  _560
REMARK  225  A    between atoms: _560  and  _561
REMARK  226  A    between atoms: _564  and  _566
REMARK  227  A    between atoms: _566  and  _567
REMARK  228  A    between atoms: _566  and  _569
REMARK  229  A    between atoms: _569  and  _570
REMARK  230  A    between atoms: _570  and  _571
REMARK  231  A    between atoms: _571  and  _572
REMARK  232  A    between atoms: _581  and  _583
REMARK  233  A    between atoms: _583  and  _584
REMARK  234  A    between atoms: _586  and  _588
REMARK  235  A    between atoms: _588  and  _589
REMARK  236  A    between atoms: _588  and  _591
REMARK  237  A    between atoms: _591  and  _592
REMARK  238  A    between atoms: _592  and  _593
REMARK  239  A    between atoms: _596  and  _598
REMARK  240  A    between atoms: _598  and  _599
REMARK  241  A    between atoms: _598  and  _601
REMARK  242  A    between atoms: _601  and  _602
REMARK  243  A    between atoms: _602  and  _603
REMARK  244  A    between atoms: _603  and  _604
REMARK  245  A    between atoms: _614  and  _615
REMARK  246  A    between atoms: _620  and  _622
REMARK  247  A    between atoms: _622  and  _623
REMARK  248  A    between atoms: _622  and  _625
REMARK  249  A    between atoms: _628  and  _630
REMARK  250  A    between atoms: _630  and  _631
REMARK  251  A    between atoms: _630  and  _633
REMARK  252  A    between atoms: _633  and  _634
REMARK  253  A    between atoms: _634  and  _635
REMARK  254  A    between atoms: _638  and  _640
REMARK  255  A    between atoms: _640  and  _641
REMARK  256  A    between atoms: _640  and  _643
REMARK  257  A    between atoms: _643  and  _644
REMARK  258  A    between atoms: _644  and  _645
REMARK  259  A    between atoms: _645  and  _646
REMARK  260  A    between atoms: _646  and  _647
REMARK  261  A    between atoms: _651  and  _653
REMARK  262  A    between atoms: _653  and  _654
REMARK  263  A    between atoms: _657  and  _659
REMARK  264  A    between atoms: _659  and  _660
REMARK  265  A    between atoms: _659  and  _662
REMARK  266  A    between atoms: _662  and  _663
REMARK  267  A    between atoms: _665  and  _667
REMARK  268  A    between atoms: _667  and  _668
REMARK  269  A    between atoms: _667  and  _670
REMARK  270  A    between atoms: _670  and  _671
REMARK  271  A    between atoms: _671  and  _672
REMARK  272  A    between atoms: _677  and  _679
REMARK  273  A    between atoms: _679  and  _680
REMARK  274  A    between atoms: _679  and  _682
REMARK  275  A    between atoms: _682  and  _683
REMARK  276  A    between atoms: _685  and  _687
REMARK  277  A    between atoms: _687  and  _688
REMARK  278  A    between atoms: _687  and  _690
REMARK  279  A    between atoms: _690  and  _691
REMARK  280  A    between atoms: _694  and  _696
REMARK  281  A    between atoms: _696  and  _697
REMARK  282  A    between atoms: _696  and  _699
REMARK  283  A    between atoms: _699  and  _700
REMARK  284  A    between atoms: _703  and  _705
REMARK  285  A    between atoms: _705  and  _706
REMARK  286  A    between atoms: _705  and  _708
REMARK  287  A    between atoms: _711  and  _713
REMARK  288  A    between atoms: _713  and  _714
REMARK  289  A    between atoms: _716  and  _718
REMARK  290  A    between atoms: _718  and  _719
REMARK  291  A    between atoms: _722  and  _724
REMARK  292  A    between atoms: _724  and  _725
REMARK  293  A    between atoms: _724  and  _727
REMARK                            x       y       z     vdW  Elec       q    Type
REMARK                         _______ _______ _______ _____ _____    ______ ____
ROOT
ATOM      1  O   HOH     1      25.125  31.284  29.728  0.00  0.00    +0.000 OA
ENDROOT
TORSDOF 0
REMARK  Name = ../refined-set-2016/1m4h/1m4h_pocket.pdb
REMARK  293 active torsions:
REMARK  status: ('A' for Active; 'I' for Inactive)
REMARK    1  A    between atoms: _1  and  _3
REMARK    2  A    between atoms: _3  and  _4
REMARK    3  A    between atoms: _3  and  _6
REMARK    4  A    between atoms: _6  and  _7
REMARK    5  A    between atoms: _7  and  _8
REMARK    6  A    between atoms: _8  and  _9
REMARK    7  A    between atoms: _9  and  _10
REMARK    8  A    between atoms: _14  and  _16
REMARK    9  A    between atoms: _16  and  _17
REMARK   10  A    between atoms: _16  and  _19
REMARK   11  A    between atoms: _19  and  _20
REMARK   12  A    between atoms: _22  and  _24
REMARK   13  A    between atoms: _24  and  _25
REMARK   14  A    between atoms: _27  and  _29
REMARK   15  A    between atoms: _29  and  _30
REMARK   16  A    between atoms: _29  and  _32
REMARK   17  A    between atoms: _32  and  _33
REMARK   18  A    between atoms: _33  and  _34
REMARK   19  A    between atoms: _39  and  _41
REMARK   20  A    between atoms: _41  and  _42
REMARK   21  A    between atoms: _44  and  _46
REMARK   22  A    between atoms: _46  and  _47
REMARK   23  A    between atoms: _46  and  _49
REMARK   24  A    between atoms: _49  and  _50
REMARK   25  A    between atoms: _55  and  _56
REMARK   26  A    between atoms: _58  and  _60
REMARK   27  A    between atoms: _60  and  _61
REMARK   28  A    between atoms: _60  and  _63
REMARK   29  A    between atoms: _63  and  _64
REMARK   30  A    between atoms: _67  and  _69
REMARK   31  A    between atoms: _69  and  _70
REMARK   32  A    between atoms: _69  and  _72
REMARK   33  A    between atoms: _75  and  _77
REMARK   34  A    between atoms: _77  and  _78
REMARK   35  A    between atoms: _77  and  _80
REMARK   36  A    between atoms: _80  and  _81
REMARK   37  A    between atoms: _84  and  _86
REMARK   38  A    between atoms: _86  and  _87
REMARK   39  A    between atoms: _86  and  _89
REMARK   40  A    between atoms: _89  and  _90
REMARK   41  A    between atoms: _93  and  _95
REMARK   42  A    between atoms: _95  and  _96
REMARK   43  A    between atoms: _98  and  _100
REMARK   44  A    between atoms: _100  and  _101
REMARK   45  A    between atoms: _100  and  _103
REMARK   46  A    between atoms: _103  and  _104
REMARK   47  A    between atoms: _106  and  _108
REMARK   48  A    between atoms: _108  and  _109
REMARK   49  A    between atoms: _108  and  _111
REMARK   50  A    between atoms: _111  and  _112
REMARK   51  A    between atoms: _114  and  _116
REMARK   52  A    between atoms: _116  and  _117
REMARK   53  A    between atoms: _116  and  _119
REMARK   54  A    between atoms: _119  and  _120
REMARK   55  A    between atoms: _125  and  _127
REMARK   56  A    between atoms: _127  and  _128
REMARK   57  A    between atoms: _127  and  _130
REMARK   58  A    between atoms: _130  and  _131
REMARK   59  A    between atoms: _136  and  _137
REMARK   60  A    between atoms: _139  and  _141
REMARK   61  A    between atoms: _141  and  _142
REMARK   62  A    between atoms: _141  and  _144
REMARK   63  A    between atoms: _148  and  _149
REMARK   64  A    between atoms: _154  and  _156
REMARK   65  A    between atoms: _156  and  _157
REMARK   66  A    between atoms: _156  and  _159
REMARK   67  A    between atoms: _159  and  _160
REMARK   68  A    between atoms: _165  and  _166
REMARK   69  A    between atoms: _168  and  _170
REMARK   70  A    between atoms: _170  and  _171
REMARK   71  A    between atoms: _170  and  _173
REMARK   72  A    between atoms: _173  and  _174
REMARK   73  A    between atoms: _177  and  _179
REMARK   74  A    between atoms: _179  and  _180
REMARK   75  A    between atoms: _179  and  _182
REMARK   76  A    between atoms: _182  and  _183
REMARK   77  A    between atoms: _183  and  _184
REMARK   78  A    between atoms: _189  and  _191
REMARK   79  A    between atoms: _191  and  _192
REMARK   80  A    between atoms: _194  and  _196
REMARK   81  A    between atoms: _196  and  _197
REMARK   82  A    between atoms: _196  and  _199
REMARK   83  A    between atoms: _199  and  _200
REMARK   84  A    between atoms: _200  and  _201
REMARK   85  A    between atoms: _201  and  _202
REMARK   86  A    between atoms: _202  and  _203
REMARK   87  A    between atoms: _207  and  _209
REMARK   88  A    between atoms: _209  and  _210
REMARK   89  A    between atoms: _209  and  _212
REMARK   90  A    between atoms: _212  and  _213
REMARK   91  A    between atoms: _223  and  _225
REMARK   92  A    between atoms: _225  and  _226
REMARK   93  A    between atoms: _225  and  _228
REMARK   94  A    between atoms: _228  and  _229
REMARK   95  A    between atoms: _232  and  _234
REMARK   96  A    between atoms: _234  and  _235
REMARK   97  A    between atoms: _234  and  _237
REMARK   98  A    between atoms: _237  and  _238
REMARK   99  A    between atoms: _238  and  _239
REMARK  100  A    between atoms: _239  and  _240
REMARK  101  A    between atoms: _240  and  _241
REMARK  102  A    between atoms: _245  and  _247
REMARK  103  A    between atoms: _247  and  _248
REMARK  104  A    between atoms: _247  and  _250
REMARK  105  A    between atoms: _250  and  _251
REMARK  106  A    between atoms: _257  and  _259
REMARK  107  A    between atoms: _259  and  _260
REMARK  108  A    between atoms: _259  and  _262
REMARK  109  A    between atoms: _262  and  _263
REMARK  110  A    between atoms: _269  and  _271
REMARK  111  A    between atoms: _271  and  _272
REMARK  112  A    between atoms: _271  and  _274
REMARK  113  A    between atoms: _274  and  _275
REMARK  114  A    between atoms: _278  and  _280
REMARK  115  A    between atoms: _280  and  _281
REMARK  116  A    between atoms: _280  and  _283
REMARK  117  A    between atoms: _283  and  _284
REMARK  118  A    between atoms: _286  and  _288
REMARK  119  A    between atoms: _288  and  _289
REMARK  120  A    between atoms: _288  and  _291
REMARK  121  A    between atoms: _291  and  _292
REMARK  122  A    between atoms: _302  and  _304
REMARK  123  A    between atoms: _304  and  _305
REMARK  124  A    between atoms: _307  and  _309
REMARK  125  A    between atoms: _309  and  _310
REMARK  126  A    between atoms: _309  and  _312
REMARK  127  A    between atoms: _312  and  _313
REMARK  128  A    between atoms: _316  and  _318
REMARK  129  A    between atoms: _318  and  _319
REMARK  130  A    between atoms: _318  and  _321
REMARK  131  A    between atoms: _321  and  _322
REMARK  132  A    between atoms: _325  and  _327
REMARK  133  A    between atoms: _327  and  _328
REMARK  134  A    between atoms: _327  and  _330
REMARK  135  A    between atoms: _330  and  _331
REMARK  136  A    between atoms: _334  and  _336
REMARK  137  A    between atoms: _336  and  _337
REMARK  138  A    between atoms: _340  and  _342
REMARK  139  A    between atoms: _342  and  _343
REMARK  140  A    between atoms: _342  and  _345
REMARK  141  A    between atoms: _345  and  _346
REMARK  142  A    between atoms: _351  and  _352
REMARK  143  A    between atoms: _354  and  _356
REMARK  144  A    between atoms: _356  and  _357
REMARK  145  A    between atoms: _360  and  _362
REMARK  146  A    between atoms: _362  and  _363
REMARK  147  A    between atoms: _362  and  _365
REMARK  148  A    between atoms: _365  and  _366
REMARK  149  A    between atoms: _366  and  _367
REMARK  150  A    between atoms: _370  and  _372
REMARK  151  A    between atoms: _372  and  _373
REMARK  152  A    between atoms: _372  and  _375
REMARK  153  A    between atoms: _375  and  _376
REMARK  154  A    between atoms: _379  and  _381
REMARK  155  A    between atoms: _381  and  _382
REMARK  156  A    between atoms: _385  and  _387
REMARK  157  A    between atoms: _387  and  _388
REMARK  158  A    between atoms: _387  and  _390
REMARK  159  A    between atoms: _390  and  _391
REMARK  160  A    between atoms: _391  and  _392
REMARK  161  A    between atoms: _392  and  _393
REMARK  162  A    between atoms: _403  and  _404
REMARK  163  A    between atoms: _409  and  _411
REMARK  164  A    between atoms: _411  and  _412
REMARK  165  A    between atoms: _411  and  _414
REMARK  166  A    between atoms: _414  and  _415
REMARK  167  A    between atoms: _418  and  _420
REMARK  168  A    between atoms: _420  and  _421
REMARK  169  A    between atoms: _420  and  _423
REMARK  170  A    between atoms: _423  and  _424
REMARK  171  A    between atoms: _427  and  _429
REMARK  172  A    between atoms: _429  and  _430
REMARK  173  A    between atoms: _429  and  _432
REMARK  174  A    between atoms: _432  and  _433
REMARK  175  A    between atoms: _433  and  _434
REMARK  176  A    between atoms: _434  and  _435
REMARK  177  A    between atoms: _444  and  _446
REMARK  178  A    between atoms: _446  and  _447
REMARK  179  A    between atoms: _446  and  _449
REMARK  180  A    between atoms: _449  and  _450
REMARK  181  A    between atoms: _460  and  _462
REMARK  182  A    between atoms: _462  and  _463
REMARK  183  A    between atoms: _462  and  _465
REMARK  184  A    between atoms: _465  and  _466
REMARK  185  A    between atoms: _471  and  _472
REMARK  186  A    between atoms: _474  and  _476
REMARK  187  A    between atoms: _476  and  _477
REMARK  188  A    between atoms: _476  and  _479
REMARK  189  A    between atoms: _479  and  _480
REMARK  190  A    between atoms: _480  and  _481
REMARK  191  A    between atoms: _481  and  _482
REMARK  192  A    between atoms: _482  and  _483
REMARK  193  A    between atoms: _487  and  _489
REMARK  194  A    between atoms: _489  and  _490
REMARK  195  A    between atoms: _489  and  _492
REMARK  196  A    between atoms: _492  and  _493
REMARK  197  A    between atoms: _496  and  _498
REMARK  198  A    between atoms: _498  and  _499
REMARK  199  A    between atoms: _498  and  _501
REMARK  200  A    between atoms: _504  and  _506
REMARK  201  A    between atoms: _506  and  _507
REMARK  202  A    between atoms: _506  and  _509
REMARK  203  A    between atoms: _509  and  _510
REMARK  204  A    between atoms: _513  and  _515
REMARK  205  A    between atoms: _515  and  _516
REMARK  206  A    between atoms: _515  and  _518
REMARK  207  A    between atoms: _518  and  _519
REMARK  208  A    between atoms: _521  and  _523
REMARK  209  A    between atoms: _523  and  _524
REMARK  210  A    between atoms: _526  and  _528
REMARK  211  A    between atoms: _528  and  _529
REMARK  212  A    between atoms: _528  and  _531
REMARK  213  A    between atoms: _531  and  _532
REMARK  214  A    between atoms: _535  and  _537
REMARK  215  A    between atoms: _537  and  _538
REMARK  216  A    between atoms: _537  and  _540
REMARK  217  A    between atoms: _540  and  _541
REMARK  218  A    between atoms: _544  and  _546
REMARK  219  A    between atoms: _546  and  _547
REMARK  220  A    between atoms: _546  and  _549
REMARK  221  A    between atoms: _549  and  _550
REMARK  222  A    between atoms: _555  and  _557
REMARK  223  A    between atoms: _557  and  _558
REMARK  224  A    between atoms: _557  and  _560
REMARK  225  A    between atoms: _560  and  _561
REMARK  226  A    between atoms: _564  and  _566
REMARK  227  A    between atoms: _566  and  _567
REMARK  228  A    between atoms: _566  and  _569
REMARK  229  A    between atoms: _569  and  _570
REMARK  230  A    between atoms: _570  and  _571
REMARK  231  A    between atoms: _571  and  _572
REMARK  232  A    between atoms: _581  and  _583
REMARK  233  A    between atoms: _583  and  _584
REMARK  234  A    between atoms: _586  and  _588
REMARK  235  A    between atoms: _588  and  _589
REMARK  236  A    between atoms: _588  and  _591
REMARK  237  A    between atoms: _591  and  _592
REMARK  238  A    between atoms: _592  and  _593
REMARK  239  A    between atoms: _596  and  _598
REMARK  240  A    between atoms: _598  and  _599
REMARK  241  A    between atoms: _598  and  _601
REMARK  242  A    between atoms: _601  and  _602
REMARK  243  A    between atoms: _602  and  _603
REMARK  244  A    between atoms: _603  and  _604
REMARK  245  A    between atoms: _614  and  _615
REMARK  246  A    between atoms: _620  and  _622
REMARK  247  A    between atoms: _622  and  _623
REMARK  248  A    between atoms: _622  and  _625
REMARK  249  A    between atoms: _628  and  _630
REMARK  250  A    between atoms: _630  and  _631
REMARK  251  A    between atoms: _630  and  _633
REMARK  252  A    between atoms: _633  and  _634
REMARK  253  A    between atoms: _634  and  _635
REMARK  254  A    between atoms: _638  and  _640
REMARK  255  A    between atoms: _640  and  _641
REMARK  256  A    between atoms: _640  and  _643
REMARK  257  A    between atoms: _643  and  _644
REMARK  258  A    between atoms: _644  and  _645
REMARK  259  A    between atoms: _645  and  _646
REMARK  260  A    between atoms: _646  and  _647
REMARK  261  A    between atoms: _651  and  _653
REMARK  262  A    between atoms: _653  and  _654
REMARK  263  A    between atoms: _657  and  _659
REMARK  264  A    between atoms: _659  and  _660
REMARK  265  A    between atoms: _659  and  _662
REMARK  266  A    between atoms: _662  and  _663
REMARK  267  A    between atoms: _665  and  _667
REMARK  268  A    between atoms: _667  and  _668
REMARK  269  A    between atoms: _667  and  _670
REMARK  270  A    between atoms: _670  and  _671
REMARK  271  A    between atoms: _671  and  _672
REMARK  272  A    between atoms: _677  and  _679
REMARK  273  A    between atoms: _679  and  _680
REMARK  274  A    between atoms: _679  and  _682
REMARK  275  A    between atoms: _682  and  _683
REMARK  276  A    between atoms: _685  and  _687
REMARK  277  A    between atoms: _687  and  _688
REMARK  278  A    between atoms: _687  and  _690
REMARK  279  A    between atoms: _690  and  _691
REMARK  280  A    between atoms: _694  and  _696
REMARK  281  A    between atoms: _696  and  _697
REMARK  282  A    between atoms: _696  and  _699
REMARK  283  A    between atoms: _699  and  _700
REMARK  284  A    between atoms: _703  and  _705
REMARK  285  A    between atoms: _705  and  _706
REMARK  286  A    between atoms: _705  and  _708
REMARK  287  A    between atoms: _711  and  _713
REMARK  288  A    between atoms: _713  and  _714
REMARK  289  A    between atoms: _716  and  _718
REMARK  290  A    between atoms: _718  and  _719
REMARK  291  A    between atoms: _722  and  _724
REMARK  292  A    between atoms: _724  and  _725
REMARK  293  A    between atoms: _724  and  _727
REMARK                            x       y       z     vdW  Elec       q    Type
REMARK                         _______ _______ _______ _____ _____    ______ ____
ROOT
ATOM      1  O   HOH     1      28.731  38.174  22.308  0.00  0.00    +0.000 OA
ENDROOT
TORSDOF 0
REMARK  Name = ../refined-set-2016/1m4h/1m4h_pocket.pdb
REMARK  293 active torsions:
REMARK  status: ('A' for Active; 'I' for Inactive)
REMARK    1  A    between atoms: _1  and  _3
REMARK    2  A    between atoms: _3  and  _4
REMARK    3  A    between atoms: _3  and  _6
REMARK    4  A    between atoms: _6  and  _7
REMARK    5  A    between atoms: _7  and  _8
REMARK    6  A    between atoms: _8  and  _9
REMARK    7  A    between atoms: _9  and  _10
REMARK    8  A    between atoms: _14  and  _16
REMARK    9  A    between atoms: _16  and  _17
REMARK   10  A    between atoms: _16  and  _19
REMARK   11  A    between atoms: _19  and  _20
REMARK   12  A    between atoms: _22  and  _24
REMARK   13  A    between atoms: _24  and  _25
REMARK   14  A    between atoms: _27  and  _29
REMARK   15  A    between atoms: _29  and  _30
REMARK   16  A    between atoms: _29  and  _32
REMARK   17  A    between atoms: _32  and  _33
REMARK   18  A    between atoms: _33  and  _34
REMARK   19  A    between atoms: _39  and  _41
REMARK   20  A    between atoms: _41  and  _42
REMARK   21  A    between atoms: _44  and  _46
REMARK   22  A    between atoms: _46  and  _47
REMARK   23  A    between atoms: _46  and  _49
REMARK   24  A    between atoms: _49  and  _50
REMARK   25  A    between atoms: _55  and  _56
REMARK   26  A    between atoms: _58  and  _60
REMARK   27  A    between atoms: _60  and  _61
REMARK   28  A    between atoms: _60  and  _63
REMARK   29  A    between atoms: _63  and  _64
REMARK   30  A    between atoms: _67  and  _69
REMARK   31  A    between atoms: _69  and  _70
REMARK   32  A    between atoms: _69  and  _72
REMARK   33  A    between atoms: _75  and  _77
REMARK   34  A    between atoms: _77  and  _78
REMARK   35  A    between atoms: _77  and  _80
REMARK   36  A    between atoms: _80  and  _81
REMARK   37  A    between atoms: _84  and  _86
REMARK   38  A    between atoms: _86  and  _87
REMARK   39  A    between atoms: _86  and  _89
REMARK   40  A    between atoms: _89  and  _90
REMARK   41  A    between atoms: _93  and  _95
REMARK   42  A    between atoms: _95  and  _96
REMARK   43  A    between atoms: _98  and  _100
REMARK   44  A    between atoms: _100  and  _101
REMARK   45  A    between atoms: _100  and  _103
REMARK   46  A    between atoms: _103  and  _104
REMARK   47  A    between atoms: _106  and  _108
REMARK   48  A    between atoms: _108  and  _109
REMARK   49  A    between atoms: _108  and  _111
REMARK   50  A    between atoms: _111  and  _112
REMARK   51  A    between atoms: _114  and  _116
REMARK   52  A    between atoms: _116  and  _117
REMARK   53  A    between atoms: _116  and  _119
REMARK   54  A    between atoms: _119  and  _120
REMARK   55  A    between atoms: _125  and  _127
REMARK   56  A    between atoms: _127  and  _128
REMARK   57  A    between atoms: _127  and  _130
REMARK   58  A    between atoms: _130  and  _131
REMARK   59  A    between atoms: _136  and  _137
REMARK   60  A    between atoms: _139  and  _141
REMARK   61  A    between atoms: _141  and  _142
REMARK   62  A    between atoms: _141  and  _144
REMARK   63  A    between atoms: _148  and  _149
REMARK   64  A    between atoms: _154  and  _156
REMARK   65  A    between atoms: _156  and  _157
REMARK   66  A    between atoms: _156  and  _159
REMARK   67  A    between atoms: _159  and  _160
REMARK   68  A    between atoms: _165  and  _166
REMARK   69  A    between atoms: _168  and  _170
REMARK   70  A    between atoms: _170  and  _171
REMARK   71  A    between atoms: _170  and  _173
REMARK   72  A    between atoms: _173  and  _174
REMARK   73  A    between atoms: _177  and  _179
REMARK   74  A    between atoms: _179  and  _180
REMARK   75  A    between atoms: _179  and  _182
REMARK   76  A    between atoms: _182  and  _183
REMARK   77  A    between atoms: _183  and  _184
REMARK   78  A    between atoms: _189  and  _191
REMARK   79  A    between atoms: _191  and  _192
REMARK   80  A    between atoms: _194  and  _196
REMARK   81  A    between atoms: _196  and  _197
REMARK   82  A    between atoms: _196  and  _199
REMARK   83  A    between atoms: _199  and  _200
REMARK   84  A    between atoms: _200  and  _201
REMARK   85  A    between atoms: _201  and  _202
REMARK   86  A    between atoms: _202  and  _203
REMARK   87  A    between atoms: _207  and  _209
REMARK   88  A    between atoms: _209  and  _210
REMARK   89  A    between atoms: _209  and  _212
REMARK   90  A    between atoms: _212  and  _213
REMARK   91  A    between atoms: _223  and  _225
REMARK   92  A    between atoms: _225  and  _226
REMARK   93  A    between atoms: _225  and  _228
REMARK   94  A    between atoms: _228  and  _229
REMARK   95  A    between atoms: _232  and  _234
REMARK   96  A    between atoms: _234  and  _235
REMARK   97  A    between atoms: _234  and  _237
REMARK   98  A    between atoms: _237  and  _238
REMARK   99  A    between atoms: _238  and  _239
REMARK  100  A    between atoms: _239  and  _240
REMARK  101  A    between atoms: _240  and  _241
REMARK  102  A    between atoms: _245  and  _247
REMARK  103  A    between atoms: _247  and  _248
REMARK  104  A    between atoms: _247  and  _250
REMARK  105  A    between atoms: _250  and  _251
REMARK  106  A    between atoms: _257  and  _259
REMARK  107  A    between atoms: _259  and  _260
REMARK  108  A    between atoms: _259  and  _262
REMARK  109  A    between atoms: _262  and  _263
REMARK  110  A    between atoms: _269  and  _271
REMARK  111  A    between atoms: _271  and  _272
REMARK  112  A    between atoms: _271  and  _274
REMARK  113  A    between atoms: _274  and  _275
REMARK  114  A    between atoms: _278  and  _280
REMARK  115  A    between atoms: _280  and  _281
REMARK  116  A    between atoms: _280  and  _283
REMARK  117  A    between atoms: _283  and  _284
REMARK  118  A    between atoms: _286  and  _288
REMARK  119  A    between atoms: _288  and  _289
REMARK  120  A    between atoms: _288  and  _291
REMARK  121  A    between atoms: _291  and  _292
REMARK  122  A    between atoms: _302  and  _304
REMARK  123  A    between atoms: _304  and  _305
REMARK  124  A    between atoms: _307  and  _309
REMARK  125  A    between atoms: _309  and  _310
REMARK  126  A    between atoms: _309  and  _312
REMARK  127  A    between atoms: _312  and  _313
REMARK  128  A    between atoms: _316  and  _318
REMARK  129  A    between atoms: _318  and  _319
REMARK  130  A    between atoms: _318  and  _321
REMARK  131  A    between atoms: _321  and  _322
REMARK  132  A    between atoms: _325  and  _327
REMARK  133  A    between atoms: _327  and  _328
REMARK  134  A    between atoms: _327  and  _330
REMARK  135  A    between atoms: _330  and  _331
REMARK  136  A    between atoms: _334  and  _336
REMARK  137  A    between atoms: _336  and  _337
REMARK  138  A    between atoms: _340  and  _342
REMARK  139  A    between atoms: _342  and  _343
REMARK  140  A    between atoms: _342  and  _345
REMARK  141  A    between atoms: _345  and  _346
REMARK  142  A    between atoms: _351  and  _352
REMARK  143  A    between atoms: _354  and  _356
REMARK  144  A    between atoms: _356  and  _357
REMARK  145  A    between atoms: _360  and  _362
REMARK  146  A    between atoms: _362  and  _363
REMARK  147  A    between atoms: _362  and  _365
REMARK  148  A    between atoms: _365  and  _366
REMARK  149  A    between atoms: _366  and  _367
REMARK  150  A    between atoms: _370  and  _372
REMARK  151  A    between atoms: _372  and  _373
REMARK  152  A    between atoms: _372  and  _375
REMARK  153  A    between atoms: _375  and  _376
REMARK  154  A    between atoms: _379  and  _381
REMARK  155  A    between atoms: _381  and  _382
REMARK  156  A    between atoms: _385  and  _387
REMARK  157  A    between atoms: _387  and  _388
REMARK  158  A    between atoms: _387  and  _390
REMARK  159  A    between atoms: _390  and  _391
REMARK  160  A    between atoms: _391  and  _392
REMARK  161  A    between atoms: _392  and  _393
REMARK  162  A    between atoms: _403  and  _404
REMARK  163  A    between atoms: _409  and  _411
REMARK  164  A    between atoms: _411  and  _412
REMARK  165  A    between atoms: _411  and  _414
REMARK  166  A    between atoms: _414  and  _415
REMARK  167  A    between atoms: _418  and  _420
REMARK  168  A    between atoms: _420  and  _421
REMARK  169  A    between atoms: _420  and  _423
REMARK  170  A    between atoms: _423  and  _424
REMARK  171  A    between atoms: _427  and  _429
REMARK  172  A    between atoms: _429  and  _430
REMARK  173  A    between atoms: _429  and  _432
REMARK  174  A    between atoms: _432  and  _433
REMARK  175  A    between atoms: _433  and  _434
REMARK  176  A    between atoms: _434  and  _435
REMARK  177  A    between atoms: _444  and  _446
REMARK  178  A    between atoms: _446  and  _447
REMARK  179  A    between atoms: _446  and  _449
REMARK  180  A    between atoms: _449  and  _450
REMARK  181  A    between atoms: _460  and  _462
REMARK  182  A    between atoms: _462  and  _463
REMARK  183  A    between atoms: _462  and  _465
REMARK  184  A    between atoms: _465  and  _466
REMARK  185  A    between atoms: _471  and  _472
REMARK  186  A    between atoms: _474  and  _476
REMARK  187  A    between atoms: _476  and  _477
REMARK  188  A    between atoms: _476  and  _479
REMARK  189  A    between atoms: _479  and  _480
REMARK  190  A    between atoms: _480  and  _481
REMARK  191  A    between atoms: _481  and  _482
REMARK  192  A    between atoms: _482  and  _483
REMARK  193  A    between atoms: _487  and  _489
REMARK  194  A    between atoms: _489  and  _490
REMARK  195  A    between atoms: _489  and  _492
REMARK  196  A    between atoms: _492  and  _493
REMARK  197  A    between atoms: _496  and  _498
REMARK  198  A    between atoms: _498  and  _499
REMARK  199  A    between atoms: _498  and  _501
REMARK  200  A    between atoms: _504  and  _506
REMARK  201  A    between atoms: _506  and  _507
REMARK  202  A    between atoms: _506  and  _509
REMARK  203  A    between atoms: _509  and  _510
REMARK  204  A    between atoms: _513  and  _515
REMARK  205  A    between atoms: _515  and  _516
REMARK  206  A    between atoms: _515  and  _518
REMARK  207  A    between atoms: _518  and  _519
REMARK  208  A    between atoms: _521  and  _523
REMARK  209  A    between atoms: _523  and  _524
REMARK  210  A    between atoms: _526  and  _528
REMARK  211  A    between atoms: _528  and  _529
REMARK  212  A    between atoms: _528  and  _531
REMARK  213  A    between atoms: _531  and  _532
REMARK  214  A    between atoms: _535  and  _537
REMARK  215  A    between atoms: _537  and  _538
REMARK  216  A    between atoms: _537  and  _540
REMARK  217  A    between atoms: _540  and  _541
REMARK  218  A    between atoms: _544  and  _546
REMARK  219  A    between atoms: _546  and  _547
REMARK  220  A    between atoms: _546  and  _549
REMARK  221  A    between atoms: _549  and  _550
REMARK  222  A    between atoms: _555  and  _557
REMARK  223  A    between atoms: _557  and  _558
REMARK  224  A    between atoms: _557  and  _560
REMARK  225  A    between atoms: _560  and  _561
REMARK  226  A    between atoms: _564  and  _566
REMARK  227  A    between atoms: _566  and  _567
REMARK  228  A    between atoms: _566  and  _569
REMARK  229  A    between atoms: _569  and  _570
REMARK  230  A    between atoms: _570  and  _571
REMARK  231  A    between atoms: _571  and  _572
REMARK  232  A    between atoms: _581  and  _583
REMARK  233  A    between atoms: _583  and  _584
REMARK  234  A    between atoms: _586  and  _588
REMARK  235  A    between atoms: _588  and  _589
REMARK  236  A    between atoms: _588  and  _591
REMARK  237  A    between atoms: _591  and  _592
REMARK  238  A    between atoms: _592  and  _593
REMARK  239  A    between atoms: _596  and  _598
REMARK  240  A    between atoms: _598  and  _599
REMARK  241  A    between atoms: _598  and  _601
REMARK  242  A    between atoms: _601  and  _602
REMARK  243  A    between atoms: _602  and  _603
REMARK  244  A    between atoms: _603  and  _604
REMARK  245  A    between atoms: _614  and  _615
REMARK  246  A    between atoms: _620  and  _622
REMARK  247  A    between atoms: _622  and  _623
REMARK  248  A    between atoms: _622  and  _625
REMARK  249  A    between atoms: _628  and  _630
REMARK  250  A    between atoms: _630  and  _631
REMARK  251  A    between atoms: _630  and  _633
REMARK  252  A    between atoms: _633  and  _634
REMARK  253  A    between atoms: _634  and  _635
REMARK  254  A    between atoms: _638  and  _640
REMARK  255  A    between atoms: _640  and  _641
REMARK  256  A    between atoms: _640  and  _643
REMARK  257  A    between atoms: _643  and  _644
REMARK  258  A    between atoms: _644  and  _645
REMARK  259  A    between atoms: _645  and  _646
REMARK  260  A    between atoms: _646  and  _647
REMARK  261  A    between atoms: _651  and  _653
REMARK  262  A    between atoms: _653  and  _654
REMARK  263  A    between atoms: _657  and  _659
REMARK  264  A    between atoms: _659  and  _660
REMARK  265  A    between atoms: _659  and  _662
REMARK  266  A    between atoms: _662  and  _663
REMARK  267  A    between atoms: _665  and  _667
REMARK  268  A    between atoms: _667  and  _668
REMARK  269  A    between atoms: _667  and  _670
REMARK  270  A    between atoms: _670  and  _671
REMARK  271  A    between atoms: _671  and  _672
REMARK  272  A    between atoms: _677  and  _679
REMARK  273  A    between atoms: _679  and  _680
REMARK  274  A    between atoms: _679  and  _682
REMARK  275  A    between atoms: _682  and  _683
REMARK  276  A    between atoms: _685  and  _687
REMARK  277  A    between atoms: _687  and  _688
REMARK  278  A    between atoms: _687  and  _690
REMARK  279  A    between atoms: _690  and  _691
REMARK  280  A    between atoms: _694  and  _696
REMARK  281  A    between atoms: _696  and  _697
REMARK  282  A    between atoms: _696  and  _699
REMARK  283  A    between atoms: _699  and  _700
REMARK  284  A    between atoms: _703  and  _705
REMARK  285  A    between atoms: _705  and  _706
REMARK  286  A    between atoms: _705  and  _708
REMARK  287  A    between atoms: _711  and  _713
REMARK  288  A    between atoms: _713  and  _714
REMARK  289  A    between atoms: _716  and  _718
REMARK  290  A    between atoms: _718  and  _719
REMARK  291  A    between atoms: _722  and  _724
REMARK  292  A    between atoms: _724  and  _725
REMARK  293  A    between atoms: _724  and  _727
REMARK                            x       y       z     vdW  Elec       q    Type
REMARK                         _______ _______ _______ _____ _____    ______ ____
ROOT
ATOM      1  O   HOH     1      34.358  32.586  18.865  0.00  0.00    +0.000 OA
ENDROOT
TORSDOF 0
REMARK  Name = ../refined-set-2016/1m4h/1m4h_pocket.pdb
REMARK  293 active torsions:
REMARK  status: ('A' for Active; 'I' for Inactive)
REMARK    1  A    between atoms: _1  and  _3
REMARK    2  A    between atoms: _3  and  _4
REMARK    3  A    between atoms: _3  and  _6
REMARK    4  A    between atoms: _6  and  _7
REMARK    5  A    between atoms: _7  and  _8
REMARK    6  A    between atoms: _8  and  _9
REMARK    7  A    between atoms: _9  and  _10
REMARK    8  A    between atoms: _14  and  _16
REMARK    9  A    between atoms: _16  and  _17
REMARK   10  A    between atoms: _16  and  _19
REMARK   11  A    between atoms: _19  and  _20
REMARK   12  A    between atoms: _22  and  _24
REMARK   13  A    between atoms: _24  and  _25
REMARK   14  A    between atoms: _27  and  _29
REMARK   15  A    between atoms: _29  and  _30
REMARK   16  A    between atoms: _29  and  _32
REMARK   17  A    between atoms: _32  and  _33
REMARK   18  A    between atoms: _33  and  _34
REMARK   19  A    between atoms: _39  and  _41
REMARK   20  A    between atoms: _41  and  _42
REMARK   21  A    between atoms: _44  and  _46
REMARK   22  A    between atoms: _46  and  _47
REMARK   23  A    between atoms: _46  and  _49
REMARK   24  A    between atoms: _49  and  _50
REMARK   25  A    between atoms: _55  and  _56
REMARK   26  A    between atoms: _58  and  _60
REMARK   27  A    between atoms: _60  and  _61
REMARK   28  A    between atoms: _60  and  _63
REMARK   29  A    between atoms: _63  and  _64
REMARK   30  A    between atoms: _67  and  _69
REMARK   31  A    between atoms: _69  and  _70
REMARK   32  A    between atoms: _69  and  _72
REMARK   33  A    between atoms: _75  and  _77
REMARK   34  A    between atoms: _77  and  _78
REMARK   35  A    between atoms: _77  and  _80
REMARK   36  A    between atoms: _80  and  _81
REMARK   37  A    between atoms: _84  and  _86
REMARK   38  A    between atoms: _86  and  _87
REMARK   39  A    between atoms: _86  and  _89
REMARK   40  A    between atoms: _89  and  _90
REMARK   41  A    between atoms: _93  and  _95
REMARK   42  A    between atoms: _95  and  _96
REMARK   43  A    between atoms: _98  and  _100
REMARK   44  A    between atoms: _100  and  _101
REMARK   45  A    between atoms: _100  and  _103
REMARK   46  A    between atoms: _103  and  _104
REMARK   47  A    between atoms: _106  and  _108
REMARK   48  A    between atoms: _108  and  _109
REMARK   49  A    between atoms: _108  and  _111
REMARK   50  A    between atoms: _111  and  _112
REMARK   51  A    between atoms: _114  and  _116
REMARK   52  A    between atoms: _116  and  _117
REMARK   53  A    between atoms: _116  and  _119
REMARK   54  A    between atoms: _119  and  _120
REMARK   55  A    between atoms: _125  and  _127
REMARK   56  A    between atoms: _127  and  _128
REMARK   57  A    between atoms: _127  and  _130
REMARK   58  A    between atoms: _130  and  _131
REMARK   59  A    between atoms: _136  and  _137
REMARK   60  A    between atoms: _139  and  _141
REMARK   61  A    between atoms: _141  and  _142
REMARK   62  A    between atoms: _141  and  _144
REMARK   63  A    between atoms: _148  and  _149
REMARK   64  A    between atoms: _154  and  _156
REMARK   65  A    between atoms: _156  and  _157
REMARK   66  A    between atoms: _156  and  _159
REMARK   67  A    between atoms: _159  and  _160
REMARK   68  A    between atoms: _165  and  _166
REMARK   69  A    between atoms: _168  and  _170
REMARK   70  A    between atoms: _170  and  _171
REMARK   71  A    between atoms: _170  and  _173
REMARK   72  A    between atoms: _173  and  _174
REMARK   73  A    between atoms: _177  and  _179
REMARK   74  A    between atoms: _179  and  _180
REMARK   75  A    between atoms: _179  and  _182
REMARK   76  A    between atoms: _182  and  _183
REMARK   77  A    between atoms: _183  and  _184
REMARK   78  A    between atoms: _189  and  _191
REMARK   79  A    between atoms: _191  and  _192
REMARK   80  A    between atoms: _194  and  _196
REMARK   81  A    between atoms: _196  and  _197
REMARK   82  A    between atoms: _196  and  _199
REMARK   83  A    between atoms: _199  and  _200
REMARK   84  A    between atoms: _200  and  _201
REMARK   85  A    between atoms: _201  and  _202
REMARK   86  A    between atoms: _202  and  _203
REMARK   87  A    between atoms: _207  and  _209
REMARK   88  A    between atoms: _209  and  _210
REMARK   89  A    between atoms: _209  and  _212
REMARK   90  A    between atoms: _212  and  _213
REMARK   91  A    between atoms: _223  and  _225
REMARK   92  A    between atoms: _225  and  _226
REMARK   93  A    between atoms: _225  and  _228
REMARK   94  A    between atoms: _228  and  _229
REMARK   95  A    between atoms: _232  and  _234
REMARK   96  A    between atoms: _234  and  _235
REMARK   97  A    between atoms: _234  and  _237
REMARK   98  A    between atoms: _237  and  _238
REMARK   99  A    between atoms: _238  and  _239
REMARK  100  A    between atoms: _239  and  _240
REMARK  101  A    between atoms: _240  and  _241
REMARK  102  A    between atoms: _245  and  _247
REMARK  103  A    between atoms: _247  and  _248
REMARK  104  A    between atoms: _247  and  _250
REMARK  105  A    between atoms: _250  and  _251
REMARK  106  A    between atoms: _257  and  _259
REMARK  107  A    between atoms: _259  and  _260
REMARK  108  A    between atoms: _259  and  _262
REMARK  109  A    between atoms: _262  and  _263
REMARK  110  A    between atoms: _269  and  _271
REMARK  111  A    between atoms: _271  and  _272
REMARK  112  A    between atoms: _271  and  _274
REMARK  113  A    between atoms: _274  and  _275
REMARK  114  A    between atoms: _278  and  _280
REMARK  115  A    between atoms: _280  and  _281
REMARK  116  A    between atoms: _280  and  _283
REMARK  117  A    between atoms: _283  and  _284
REMARK  118  A    between atoms: _286  and  _288
REMARK  119  A    between atoms: _288  and  _289
REMARK  120  A    between atoms: _288  and  _291
REMARK  121  A    between atoms: _291  and  _292
REMARK  122  A    between atoms: _302  and  _304
REMARK  123  A    between atoms: _304  and  _305
REMARK  124  A    between atoms: _307  and  _309
REMARK  125  A    between atoms: _309  and  _310
REMARK  126  A    between atoms: _309  and  _312
REMARK  127  A    between atoms: _312  and  _313
REMARK  128  A    between atoms: _316  and  _318
REMARK  129  A    between atoms: _318  and  _319
REMARK  130  A    between atoms: _318  and  _321
REMARK  131  A    between atoms: _321  and  _322
REMARK  132  A    between atoms: _325  and  _327
REMARK  133  A    between atoms: _327  and  _328
REMARK  134  A    between atoms: _327  and  _330
REMARK  135  A    between atoms: _330  and  _331
REMARK  136  A    between atoms: _334  and  _336
REMARK  137  A    between atoms: _336  and  _337
REMARK  138  A    between atoms: _340  and  _342
REMARK  139  A    between atoms: _342  and  _343
REMARK  140  A    between atoms: _342  and  _345
REMARK  141  A    between atoms: _345  and  _346
REMARK  142  A    between atoms: _351  and  _352
REMARK  143  A    between atoms: _354  and  _356
REMARK  144  A    between atoms: _356  and  _357
REMARK  145  A    between atoms: _360  and  _362
REMARK  146  A    between atoms: _362  and  _363
REMARK  147  A    between atoms: _362  and  _365
REMARK  148  A    between atoms: _365  and  _366
REMARK  149  A    between atoms: _366  and  _367
REMARK  150  A    between atoms: _370  and  _372
REMARK  151  A    between atoms: _372  and  _373
REMARK  152  A    between atoms: _372  and  _375
REMARK  153  A    between atoms: _375  and  _376
REMARK  154  A    between atoms: _379  and  _381
REMARK  155  A    between atoms: _381  and  _382
REMARK  156  A    between atoms: _385  and  _387
REMARK  157  A    between atoms: _387  and  _388
REMARK  158  A    between atoms: _387  and  _390
REMARK  159  A    between atoms: _390  and  _391
REMARK  160  A    between atoms: _391  and  _392
REMARK  161  A    between atoms: _392  and  _393
REMARK  162  A    between atoms: _403  and  _404
REMARK  163  A    between atoms: _409  and  _411
REMARK  164  A    between atoms: _411  and  _412
REMARK  165  A    between atoms: _411  and  _414
REMARK  166  A    between atoms: _414  and  _415
REMARK  167  A    between atoms: _418  and  _420
REMARK  168  A    between atoms: _420  and  _421
REMARK  169  A    between atoms: _420  and  _423
REMARK  170  A    between atoms: _423  and  _424
REMARK  171  A    between atoms: _427  and  _429
REMARK  172  A    between atoms: _429  and  _430
REMARK  173  A    between atoms: _429  and  _432
REMARK  174  A    between atoms: _432  and  _433
REMARK  175  A    between atoms: _433  and  _434
REMARK  176  A    between atoms: _434  and  _435
REMARK  177  A    between atoms: _444  and  _446
REMARK  178  A    between atoms: _446  and  _447
REMARK  179  A    between atoms: _446  and  _449
REMARK  180  A    between atoms: _449  and  _450
REMARK  181  A    between atoms: _460  and  _462
REMARK  182  A    between atoms: _462  and  _463
REMARK  183  A    between atoms: _462  and  _465
REMARK  184  A    between atoms: _465  and  _466
REMARK  185  A    between atoms: _471  and  _472
REMARK  186  A    between atoms: _474  and  _476
REMARK  187  A    between atoms: _476  and  _477
REMARK  188  A    between atoms: _476  and  _479
REMARK  189  A    between atoms: _479  and  _480
REMARK  190  A    between atoms: _480  and  _481
REMARK  191  A    between atoms: _481  and  _482
REMARK  192  A    between atoms: _482  and  _483
REMARK  193  A    between atoms: _487  and  _489
REMARK  194  A    between atoms: _489  and  _490
REMARK  195  A    between atoms: _489  and  _492
REMARK  196  A    between atoms: _492  and  _493
REMARK  197  A    between atoms: _496  and  _498
REMARK  198  A    between atoms: _498  and  _499
REMARK  199  A    between atoms: _498  and  _501
REMARK  200  A    between atoms: _504  and  _506
REMARK  201  A    between atoms: _506  and  _507
REMARK  202  A    between atoms: _506  and  _509
REMARK  203  A    between atoms: _509  and  _510
REMARK  204  A    between atoms: _513  and  _515
REMARK  205  A    between atoms: _515  and  _516
REMARK  206  A    between atoms: _515  and  _518
REMARK  207  A    between atoms: _518  and  _519
REMARK  208  A    between atoms: _521  and  _523
REMARK  209  A    between atoms: _523  and  _524
REMARK  210  A    between atoms: _526  and  _528
REMARK  211  A    between atoms: _528  and  _529
REMARK  212  A    between atoms: _528  and  _531
REMARK  213  A    between atoms: _531  and  _532
REMARK  214  A    between atoms: _535  and  _537
REMARK  215  A    between atoms: _537  and  _538
REMARK  216  A    between atoms: _537  and  _540
REMARK  217  A    between atoms: _540  and  _541
REMARK  218  A    between atoms: _544  and  _546
REMARK  219  A    between atoms: _546  and  _547
REMARK  220  A    between atoms: _546  and  _549
REMARK  221  A    between atoms: _549  and  _550
REMARK  222  A    between atoms: _555  and  _557
REMARK  223  A    between atoms: _557  and  _558
REMARK  224  A    between atoms: _557  and  _560
REMARK  225  A    between atoms: _560  and  _561
REMARK  226  A    between atoms: _564  and  _566
REMARK  227  A    between atoms: _566  and  _567
REMARK  228  A    between atoms: _566  and  _569
REMARK  229  A    between atoms: _569  and  _570
REMARK  230  A    between atoms: _570  and  _571
REMARK  231  A    between atoms: _571  and  _572
REMARK  232  A    between atoms: _581  and  _583
REMARK  233  A    between atoms: _583  and  _584
REMARK  234  A    between atoms: _586  and  _588
REMARK  235  A    between atoms: _588  and  _589
REMARK  236  A    between atoms: _588  and  _591
REMARK  237  A    between atoms: _591  and  _592
REMARK  238  A    between atoms: _592  and  _593
REMARK  239  A    between atoms: _596  and  _598
REMARK  240  A    between atoms: _598  and  _599
REMARK  241  A    between atoms: _598  and  _601
REMARK  242  A    between atoms: _601  and  _602
REMARK  243  A    between atoms: _602  and  _603
REMARK  244  A    between atoms: _603  and  _604
REMARK  245  A    between atoms: _614  and  _615
REMARK  246  A    between atoms: _620  and  _622
REMARK  247  A    between atoms: _622  and  _623
REMARK  248  A    between atoms: _622  and  _625
REMARK  249  A    between atoms: _628  and  _630
REMARK  250  A    between atoms: _630  and  _631
REMARK  251  A    between atoms: _630  and  _633
REMARK  252  A    between atoms: _633  and  _634
REMARK  253  A    between atoms: _634  and  _635
REMARK  254  A    between atoms: _638  and  _640
REMARK  255  A    between atoms: _640  and  _641
REMARK  256  A    between atoms: _640  and  _643
REMARK  257  A    between atoms: _643  and  _644
REMARK  258  A    between atoms: _644  and  _645
REMARK  259  A    between atoms: _645  and  _646
REMARK  260  A    between atoms: _646  and  _647
REMARK  261  A    between atoms: _651  and  _653
REMARK  262  A    between atoms: _653  and  _654
REMARK  263  A    between atoms: _657  and  _659
REMARK  264  A    between atoms: _659  and  _660
REMARK  265  A    between atoms: _659  and  _662
REMARK  266  A    between atoms: _662  and  _663
REMARK  267  A    between atoms: _665  and  _667
REMARK  268  A    between atoms: _667  and  _668
REMARK  269  A    between atoms: _667  and  _670
REMARK  270  A    between atoms: _670  and  _671
REMARK  271  A    between atoms: _671  and  _672
REMARK  272  A    between atoms: _677  and  _679
REMARK  273  A    between atoms: _679  and  _680
REMARK  274  A    between atoms: _679  and  _682
REMARK  275  A    between atoms: _682  and  _683
REMARK  276  A    between atoms: _685  and  _687
REMARK  277  A    between atoms: _687  and  _688
REMARK  278  A    between atoms: _687  and  _690
REMARK  279  A    between atoms: _690  and  _691
REMARK  280  A    between atoms: _694  and  _696
REMARK  281  A    between atoms: _696  and  _697
REMARK  282  A    between atoms: _696  and  _699
REMARK  283  A    between atoms: _699  and  _700
REMARK  284  A    between atoms: _703  and  _705
REMARK  285  A    between atoms: _705  and  _706
REMARK  286  A    between atoms: _705  and  _708
REMARK  287  A    between atoms: _711  and  _713
REMARK  288  A    between atoms: _713  and  _714
REMARK  289  A    between atoms: _716  and  _718
REMARK  290  A    between atoms: _718  and  _719
REMARK  291  A    between atoms: _722  and  _724
REMARK  292  A    between atoms: _724  and  _725
REMARK  293  A    between atoms: _724  and  _727
REMARK                            x       y       z     vdW  Elec       q    Type
REMARK                         _______ _______ _______ _____ _____    ______ ____
ROOT
ATOM      1  O   HOH     1       9.527  37.787  16.927  0.00  0.00    +0.000 OA
ENDROOT
TORSDOF 0
REMARK  Name = ../refined-set-2016/1m4h/1m4h_pocket.pdb
REMARK  293 active torsions:
REMARK  status: ('A' for Active; 'I' for Inactive)
REMARK    1  A    between atoms: _1  and  _3
REMARK    2  A    between atoms: _3  and  _4
REMARK    3  A    between atoms: _3  and  _6
REMARK    4  A    between atoms: _6  and  _7
REMARK    5  A    between atoms: _7  and  _8
REMARK    6  A    between atoms: _8  and  _9
REMARK    7  A    between atoms: _9  and  _10
REMARK    8  A    between atoms: _14  and  _16
REMARK    9  A    between atoms: _16  and  _17
REMARK   10  A    between atoms: _16  and  _19
REMARK   11  A    between atoms: _19  and  _20
REMARK   12  A    between atoms: _22  and  _24
REMARK   13  A    between atoms: _24  and  _25
REMARK   14  A    between atoms: _27  and  _29
REMARK   15  A    between atoms: _29  and  _30
REMARK   16  A    between atoms: _29  and  _32
REMARK   17  A    between atoms: _32  and  _33
REMARK   18  A    between atoms: _33  and  _34
REMARK   19  A    between atoms: _39  and  _41
REMARK   20  A    between atoms: _41  and  _42
REMARK   21  A    between atoms: _44  and  _46
REMARK   22  A    between atoms: _46  and  _47
REMARK   23  A    between atoms: _46  and  _49
REMARK   24  A    between atoms: _49  and  _50
REMARK   25  A    between atoms: _55  and  _56
REMARK   26  A    between atoms: _58  and  _60
REMARK   27  A    between atoms: _60  and  _61
REMARK   28  A    between atoms: _60  and  _63
REMARK   29  A    between atoms: _63  and  _64
REMARK   30  A    between atoms: _67  and  _69
REMARK   31  A    between atoms: _69  and  _70
REMARK   32  A    between atoms: _69  and  _72
REMARK   33  A    between atoms: _75  and  _77
REMARK   34  A    between atoms: _77  and  _78
REMARK   35  A    between atoms: _77  and  _80
REMARK   36  A    between atoms: _80  and  _81
REMARK   37  A    between atoms: _84  and  _86
REMARK   38  A    between atoms: _86  and  _87
REMARK   39  A    between atoms: _86  and  _89
REMARK   40  A    between atoms: _89  and  _90
REMARK   41  A    between atoms: _93  and  _95
REMARK   42  A    between atoms: _95  and  _96
REMARK   43  A    between atoms: _98  and  _100
REMARK   44  A    between atoms: _100  and  _101
REMARK   45  A    between atoms: _100  and  _103
REMARK   46  A    between atoms: _103  and  _104
REMARK   47  A    between atoms: _106  and  _108
REMARK   48  A    between atoms: _108  and  _109
REMARK   49  A    between atoms: _108  and  _111
REMARK   50  A    between atoms: _111  and  _112
REMARK   51  A    between atoms: _114  and  _116
REMARK   52  A    between atoms: _116  and  _117
REMARK   53  A    between atoms: _116  and  _119
REMARK   54  A    between atoms: _119  and  _120
REMARK   55  A    between atoms: _125  and  _127
REMARK   56  A    between atoms: _127  and  _128
REMARK   57  A    between atoms: _127  and  _130
REMARK   58  A    between atoms: _130  and  _131
REMARK   59  A    between atoms: _136  and  _137
REMARK   60  A    between atoms: _139  and  _141
REMARK   61  A    between atoms: _141  and  _142
REMARK   62  A    between atoms: _141  and  _144
REMARK   63  A    between atoms: _148  and  _149
REMARK   64  A    between atoms: _154  and  _156
REMARK   65  A    between atoms: _156  and  _157
REMARK   66  A    between atoms: _156  and  _159
REMARK   67  A    between atoms: _159  and  _160
REMARK   68  A    between atoms: _165  and  _166
REMARK   69  A    between atoms: _168  and  _170
REMARK   70  A    between atoms: _170  and  _171
REMARK   71  A    between atoms: _170  and  _173
REMARK   72  A    between atoms: _173  and  _174
REMARK   73  A    between atoms: _177  and  _179
REMARK   74  A    between atoms: _179  and  _180
REMARK   75  A    between atoms: _179  and  _182
REMARK   76  A    between atoms: _182  and  _183
REMARK   77  A    between atoms: _183  and  _184
REMARK   78  A    between atoms: _189  and  _191
REMARK   79  A    between atoms: _191  and  _192
REMARK   80  A    between atoms: _194  and  _196
REMARK   81  A    between atoms: _196  and  _197
REMARK   82  A    between atoms: _196  and  _199
REMARK   83  A    between atoms: _199  and  _200
REMARK   84  A    between atoms: _200  and  _201
REMARK   85  A    between atoms: _201  and  _202
REMARK   86  A    between atoms: _202  and  _203
REMARK   87  A    between atoms: _207  and  _209
REMARK   88  A    between atoms: _209  and  _210
REMARK   89  A    between atoms: _209  and  _212
REMARK   90  A    between atoms: _212  and  _213
REMARK   91  A    between atoms: _223  and  _225
REMARK   92  A    between atoms: _225  and  _226
REMARK   93  A    between atoms: _225  and  _228
REMARK   94  A    between atoms: _228  and  _229
REMARK   95  A    between atoms: _232  and  _234
REMARK   96  A    between atoms: _234  and  _235
REMARK   97  A    between atoms: _234  and  _237
REMARK   98  A    between atoms: _237  and  _238
REMARK   99  A    between atoms: _238  and  _239
REMARK  100  A    between atoms: _239  and  _240
REMARK  101  A    between atoms: _240  and  _241
REMARK  102  A    between atoms: _245  and  _247
REMARK  103  A    between atoms: _247  and  _248
REMARK  104  A    between atoms: _247  and  _250
REMARK  105  A    between atoms: _250  and  _251
REMARK  106  A    between atoms: _257  and  _259
REMARK  107  A    between atoms: _259  and  _260
REMARK  108  A    between atoms: _259  and  _262
REMARK  109  A    between atoms: _262  and  _263
REMARK  110  A    between atoms: _269  and  _271
REMARK  111  A    between atoms: _271  and  _272
REMARK  112  A    between atoms: _271  and  _274
REMARK  113  A    between atoms: _274  and  _275
REMARK  114  A    between atoms: _278  and  _280
REMARK  115  A    between atoms: _280  and  _281
REMARK  116  A    between atoms: _280  and  _283
REMARK  117  A    between atoms: _283  and  _284
REMARK  118  A    between atoms: _286  and  _288
REMARK  119  A    between atoms: _288  and  _289
REMARK  120  A    between atoms: _288  and  _291
REMARK  121  A    between atoms: _291  and  _292
REMARK  122  A    between atoms: _302  and  _304
REMARK  123  A    between atoms: _304  and  _305
REMARK  124  A    between atoms: _307  and  _309
REMARK  125  A    between atoms: _309  and  _310
REMARK  126  A    between atoms: _309  and  _312
REMARK  127  A    between atoms: _312  and  _313
REMARK  128  A    between atoms: _316  and  _318
REMARK  129  A    between atoms: _318  and  _319
REMARK  130  A    between atoms: _318  and  _321
REMARK  131  A    between atoms: _321  and  _322
REMARK  132  A    between atoms: _325  and  _327
REMARK  133  A    between atoms: _327  and  _328
REMARK  134  A    between atoms: _327  and  _330
REMARK  135  A    between atoms: _330  and  _331
REMARK  136  A    between atoms: _334  and  _336
REMARK  137  A    between atoms: _336  and  _337
REMARK  138  A    between atoms: _340  and  _342
REMARK  139  A    between atoms: _342  and  _343
REMARK  140  A    between atoms: _342  and  _345
REMARK  141  A    between atoms: _345  and  _346
REMARK  142  A    between atoms: _351  and  _352
REMARK  143  A    between atoms: _354  and  _356
REMARK  144  A    between atoms: _356  and  _357
REMARK  145  A    between atoms: _360  and  _362
REMARK  146  A    between atoms: _362  and  _363
REMARK  147  A    between atoms: _362  and  _365
REMARK  148  A    between atoms: _365  and  _366
REMARK  149  A    between atoms: _366  and  _367
REMARK  150  A    between atoms: _370  and  _372
REMARK  151  A    between atoms: _372  and  _373
REMARK  152  A    between atoms: _372  and  _375
REMARK  153  A    between atoms: _375  and  _376
REMARK  154  A    between atoms: _379  and  _381
REMARK  155  A    between atoms: _381  and  _382
REMARK  156  A    between atoms: _385  and  _387
REMARK  157  A    between atoms: _387  and  _388
REMARK  158  A    between atoms: _387  and  _390
REMARK  159  A    between atoms: _390  and  _391
REMARK  160  A    between atoms: _391  and  _392
REMARK  161  A    between atoms: _392  and  _393
REMARK  162  A    between atoms: _403  and  _404
REMARK  163  A    between atoms: _409  and  _411
REMARK  164  A    between atoms: _411  and  _412
REMARK  165  A    between atoms: _411  and  _414
REMARK  166  A    between atoms: _414  and  _415
REMARK  167  A    between atoms: _418  and  _420
REMARK  168  A    between atoms: _420  and  _421
REMARK  169  A    between atoms: _420  and  _423
REMARK  170  A    between atoms: _423  and  _424
REMARK  171  A    between atoms: _427  and  _429
REMARK  172  A    between atoms: _429  and  _430
REMARK  173  A    between atoms: _429  and  _432
REMARK  174  A    between atoms: _432  and  _433
REMARK  175  A    between atoms: _433  and  _434
REMARK  176  A    between atoms: _434  and  _435
REMARK  177  A    between atoms: _444  and  _446
REMARK  178  A    between atoms: _446  and  _447
REMARK  179  A    between atoms: _446  and  _449
REMARK  180  A    between atoms: _449  and  _450
REMARK  181  A    between atoms: _460  and  _462
REMARK  182  A    between atoms: _462  and  _463
REMARK  183  A    between atoms: _462  and  _465
REMARK  184  A    between atoms: _465  and  _466
REMARK  185  A    between atoms: _471  and  _472
REMARK  186  A    between atoms: _474  and  _476
REMARK  187  A    between atoms: _476  and  _477
REMARK  188  A    between atoms: _476  and  _479
REMARK  189  A    between atoms: _479  and  _480
REMARK  190  A    between atoms: _480  and  _481
REMARK  191  A    between atoms: _481  and  _482
REMARK  192  A    between atoms: _482  and  _483
REMARK  193  A    between atoms: _487  and  _489
REMARK  194  A    between atoms: _489  and  _490
REMARK  195  A    between atoms: _489  and  _492
REMARK  196  A    between atoms: _492  and  _493
REMARK  197  A    between atoms: _496  and  _498
REMARK  198  A    between atoms: _498  and  _499
REMARK  199  A    between atoms: _498  and  _501
REMARK  200  A    between atoms: _504  and  _506
REMARK  201  A    between atoms: _506  and  _507
REMARK  202  A    between atoms: _506  and  _509
REMARK  203  A    between atoms: _509  and  _510
REMARK  204  A    between atoms: _513  and  _515
REMARK  205  A    between atoms: _515  and  _516
REMARK  206  A    between atoms: _515  and  _518
REMARK  207  A    between atoms: _518  and  _519
REMARK  208  A    between atoms: _521  and  _523
REMARK  209  A    between atoms: _523  and  _524
REMARK  210  A    between atoms: _526  and  _528
REMARK  211  A    between atoms: _528  and  _529
REMARK  212  A    between atoms: _528  and  _531
REMARK  213  A    between atoms: _531  and  _532
REMARK  214  A    between atoms: _535  and  _537
REMARK  215  A    between atoms: _537  and  _538
REMARK  216  A    between atoms: _537  and  _540
REMARK  217  A    between atoms: _540  and  _541
REMARK  218  A    between atoms: _544  and  _546
REMARK  219  A    between atoms: _546  and  _547
REMARK  220  A    between atoms: _546  and  _549
REMARK  221  A    between atoms: _549  and  _550
REMARK  222  A    between atoms: _555  and  _557
REMARK  223  A    between atoms: _557  and  _558
REMARK  224  A    between atoms: _557  and  _560
REMARK  225  A    between atoms: _560  and  _561
REMARK  226  A    between atoms: _564  and  _566
REMARK  227  A    between atoms: _566  and  _567
REMARK  228  A    between atoms: _566  and  _569
REMARK  229  A    between atoms: _569  and  _570
REMARK  230  A    between atoms: _570  and  _571
REMARK  231  A    between atoms: _571  and  _572
REMARK  232  A    between atoms: _581  and  _583
REMARK  233  A    between atoms: _583  and  _584
REMARK  234  A    between atoms: _586  and  _588
REMARK  235  A    between atoms: _588  and  _589
REMARK  236  A    between atoms: _588  and  _591
REMARK  237  A    between atoms: _591  and  _592
REMARK  238  A    between atoms: _592  and  _593
REMARK  239  A    between atoms: _596  and  _598
REMARK  240  A    between atoms: _598  and  _599
REMARK  241  A    between atoms: _598  and  _601
REMARK  242  A    between atoms: _601  and  _602
REMARK  243  A    between atoms: _602  and  _603
REMARK  244  A    between atoms: _603  and  _604
REMARK  245  A    between atoms: _614  and  _615
REMARK  246  A    between atoms: _620  and  _622
REMARK  247  A    between atoms: _622  and  _623
REMARK  248  A    between atoms: _622  and  _625
REMARK  249  A    between atoms: _628  and  _630
REMARK  250  A    between atoms: _630  and  _631
REMARK  251  A    between atoms: _630  and  _633
REMARK  252  A    between atoms: _633  and  _634
REMARK  253  A    between atoms: _634  and  _635
REMARK  254  A    between atoms: _638  and  _640
REMARK  255  A    between atoms: _640  and  _641
REMARK  256  A    between atoms: _640  and  _643
REMARK  257  A    between atoms: _643  and  _644
REMARK  258  A    between atoms: _644  and  _645
REMARK  259  A    between atoms: _645  and  _646
REMARK  260  A    between atoms: _646  and  _647
REMARK  261  A    between atoms: _651  and  _653
REMARK  262  A    between atoms: _653  and  _654
REMARK  263  A    between atoms: _657  and  _659
REMARK  264  A    between atoms: _659  and  _660
REMARK  265  A    between atoms: _659  and  _662
REMARK  266  A    between atoms: _662  and  _663
REMARK  267  A    between atoms: _665  and  _667
REMARK  268  A    between atoms: _667  and  _668
REMARK  269  A    between atoms: _667  and  _670
REMARK  270  A    between atoms: _670  and  _671
REMARK  271  A    between atoms: _671  and  _672
REMARK  272  A    between atoms: _677  and  _679
REMARK  273  A    between atoms: _679  and  _680
REMARK  274  A    between atoms: _679  and  _682
REMARK  275  A    between atoms: _682  and  _683
REMARK  276  A    between atoms: _685  and  _687
REMARK  277  A    between atoms: _687  and  _688
REMARK  278  A    between atoms: _687  and  _690
REMARK  279  A    between atoms: _690  and  _691
REMARK  280  A    between atoms: _694  and  _696
REMARK  281  A    between atoms: _696  and  _697
REMARK  282  A    between atoms: _696  and  _699
REMARK  283  A    between atoms: _699  and  _700
REMARK  284  A    between atoms: _703  and  _705
REMARK  285  A    between atoms: _705  and  _706
REMARK  286  A    between atoms: _705  and  _708
REMARK  287  A    between atoms: _711  and  _713
REMARK  288  A    between atoms: _713  and  _714
REMARK  289  A    between atoms: _716  and  _718
REMARK  290  A    between atoms: _718  and  _719
REMARK  291  A    between atoms: _722  and  _724
REMARK  292  A    between atoms: _724  and  _725
REMARK  293  A    between atoms: _724  and  _727
REMARK                            x       y       z     vdW  Elec       q    Type
REMARK                         _______ _______ _______ _____ _____    ______ ____
ROOT
ATOM      1  O   HOH     1       5.620  33.314  22.481  0.00  0.00    +0.000 OA
ENDROOT
TORSDOF 0
REMARK  Name = ../refined-set-2016/1m4h/1m4h_pocket.pdb
REMARK  293 active torsions:
REMARK  status: ('A' for Active; 'I' for Inactive)
REMARK    1  A    between atoms: _1  and  _3
REMARK    2  A    between atoms: _3  and  _4
REMARK    3  A    between atoms: _3  and  _6
REMARK    4  A    between atoms: _6  and  _7
REMARK    5  A    between atoms: _7  and  _8
REMARK    6  A    between atoms: _8  and  _9
REMARK    7  A    between atoms: _9  and  _10
REMARK    8  A    between atoms: _14  and  _16
REMARK    9  A    between atoms: _16  and  _17
REMARK   10  A    between atoms: _16  and  _19
REMARK   11  A    between atoms: _19  and  _20
REMARK   12  A    between atoms: _22  and  _24
REMARK   13  A    between atoms: _24  and  _25
REMARK   14  A    between atoms: _27  and  _29
REMARK   15  A    between atoms: _29  and  _30
REMARK   16  A    between atoms: _29  and  _32
REMARK   17  A    between atoms: _32  and  _33
REMARK   18  A    between atoms: _33  and  _34
REMARK   19  A    between atoms: _39  and  _41
REMARK   20  A    between atoms: _41  and  _42
REMARK   21  A    between atoms: _44  and  _46
REMARK   22  A    between atoms: _46  and  _47
REMARK   23  A    between atoms: _46  and  _49
REMARK   24  A    between atoms: _49  and  _50
REMARK   25  A    between atoms: _55  and  _56
REMARK   26  A    between atoms: _58  and  _60
REMARK   27  A    between atoms: _60  and  _61
REMARK   28  A    between atoms: _60  and  _63
REMARK   29  A    between atoms: _63  and  _64
REMARK   30  A    between atoms: _67  and  _69
REMARK   31  A    between atoms: _69  and  _70
REMARK   32  A    between atoms: _69  and  _72
REMARK   33  A    between atoms: _75  and  _77
REMARK   34  A    between atoms: _77  and  _78
REMARK   35  A    between atoms: _77  and  _80
REMARK   36  A    between atoms: _80  and  _81
REMARK   37  A    between atoms: _84  and  _86
REMARK   38  A    between atoms: _86  and  _87
REMARK   39  A    between atoms: _86  and  _89
REMARK   40  A    between atoms: _89  and  _90
REMARK   41  A    between atoms: _93  and  _95
REMARK   42  A    between atoms: _95  and  _96
REMARK   43  A    between atoms: _98  and  _100
REMARK   44  A    between atoms: _100  and  _101
REMARK   45  A    between atoms: _100  and  _103
REMARK   46  A    between atoms: _103  and  _104
REMARK   47  A    between atoms: _106  and  _108
REMARK   48  A    between atoms: _108  and  _109
REMARK   49  A    between atoms: _108  and  _111
REMARK   50  A    between atoms: _111  and  _112
REMARK   51  A    between atoms: _114  and  _116
REMARK   52  A    between atoms: _116  and  _117
REMARK   53  A    between atoms: _116  and  _119
REMARK   54  A    between atoms: _119  and  _120
REMARK   55  A    between atoms: _125  and  _127
REMARK   56  A    between atoms: _127  and  _128
REMARK   57  A    between atoms: _127  and  _130
REMARK   58  A    between atoms: _130  and  _131
REMARK   59  A    between atoms: _136  and  _137
REMARK   60  A    between atoms: _139  and  _141
REMARK   61  A    between atoms: _141  and  _142
REMARK   62  A    between atoms: _141  and  _144
REMARK   63  A    between atoms: _148  and  _149
REMARK   64  A    between atoms: _154  and  _156
REMARK   65  A    between atoms: _156  and  _157
REMARK   66  A    between atoms: _156  and  _159
REMARK   67  A    between atoms: _159  and  _160
REMARK   68  A    between atoms: _165  and  _166
REMARK   69  A    between atoms: _168  and  _170
REMARK   70  A    between atoms: _170  and  _171
REMARK   71  A    between atoms: _170  and  _173
REMARK   72  A    between atoms: _173  and  _174
REMARK   73  A    between atoms: _177  and  _179
REMARK   74  A    between atoms: _179  and  _180
REMARK   75  A    between atoms: _179  and  _182
REMARK   76  A    between atoms: _182  and  _183
REMARK   77  A    between atoms: _183  and  _184
REMARK   78  A    between atoms: _189  and  _191
REMARK   79  A    between atoms: _191  and  _192
REMARK   80  A    between atoms: _194  and  _196
REMARK   81  A    between atoms: _196  and  _197
REMARK   82  A    between atoms: _196  and  _199
REMARK   83  A    between atoms: _199  and  _200
REMARK   84  A    between atoms: _200  and  _201
REMARK   85  A    between atoms: _201  and  _202
REMARK   86  A    between atoms: _202  and  _203
REMARK   87  A    between atoms: _207  and  _209
REMARK   88  A    between atoms: _209  and  _210
REMARK   89  A    between atoms: _209  and  _212
REMARK   90  A    between atoms: _212  and  _213
REMARK   91  A    between atoms: _223  and  _225
REMARK   92  A    between atoms: _225  and  _226
REMARK   93  A    between atoms: _225  and  _228
REMARK   94  A    between atoms: _228  and  _229
REMARK   95  A    between atoms: _232  and  _234
REMARK   96  A    between atoms: _234  and  _235
REMARK   97  A    between atoms: _234  and  _237
REMARK   98  A    between atoms: _237  and  _238
REMARK   99  A    between atoms: _238  and  _239
REMARK  100  A    between atoms: _239  and  _240
REMARK  101  A    between atoms: _240  and  _241
REMARK  102  A    between atoms: _245  and  _247
REMARK  103  A    between atoms: _247  and  _248
REMARK  104  A    between atoms: _247  and  _250
REMARK  105  A    between atoms: _250  and  _251
REMARK  106  A    between atoms: _257  and  _259
REMARK  107  A    between atoms: _259  and  _260
REMARK  108  A    between atoms: _259  and  _262
REMARK  109  A    between atoms: _262  and  _263
REMARK  110  A    between atoms: _269  and  _271
REMARK  111  A    between atoms: _271  and  _272
REMARK  112  A    between atoms: _271  and  _274
REMARK  113  A    between atoms: _274  and  _275
REMARK  114  A    between atoms: _278  and  _280
REMARK  115  A    between atoms: _280  and  _281
REMARK  116  A    between atoms: _280  and  _283
REMARK  117  A    between atoms: _283  and  _284
REMARK  118  A    between atoms: _286  and  _288
REMARK  119  A    between atoms: _288  and  _289
REMARK  120  A    between atoms: _288  and  _291
REMARK  121  A    between atoms: _291  and  _292
REMARK  122  A    between atoms: _302  and  _304
REMARK  123  A    between atoms: _304  and  _305
REMARK  124  A    between atoms: _307  and  _309
REMARK  125  A    between atoms: _309  and  _310
REMARK  126  A    between atoms: _309  and  _312
REMARK  127  A    between atoms: _312  and  _313
REMARK  128  A    between atoms: _316  and  _318
REMARK  129  A    between atoms: _318  and  _319
REMARK  130  A    between atoms: _318  and  _321
REMARK  131  A    between atoms: _321  and  _322
REMARK  132  A    between atoms: _325  and  _327
REMARK  133  A    between atoms: _327  and  _328
REMARK  134  A    between atoms: _327  and  _330
REMARK  135  A    between atoms: _330  and  _331
REMARK  136  A    between atoms: _334  and  _336
REMARK  137  A    between atoms: _336  and  _337
REMARK  138  A    between atoms: _340  and  _342
REMARK  139  A    between atoms: _342  and  _343
REMARK  140  A    between atoms: _342  and  _345
REMARK  141  A    between atoms: _345  and  _346
REMARK  142  A    between atoms: _351  and  _352
REMARK  143  A    between atoms: _354  and  _356
REMARK  144  A    between atoms: _356  and  _357
REMARK  145  A    between atoms: _360  and  _362
REMARK  146  A    between atoms: _362  and  _363
REMARK  147  A    between atoms: _362  and  _365
REMARK  148  A    between atoms: _365  and  _366
REMARK  149  A    between atoms: _366  and  _367
REMARK  150  A    between atoms: _370  and  _372
REMARK  151  A    between atoms: _372  and  _373
REMARK  152  A    between atoms: _372  and  _375
REMARK  153  A    between atoms: _375  and  _376
REMARK  154  A    between atoms: _379  and  _381
REMARK  155  A    between atoms: _381  and  _382
REMARK  156  A    between atoms: _385  and  _387
REMARK  157  A    between atoms: _387  and  _388
REMARK  158  A    between atoms: _387  and  _390
REMARK  159  A    between atoms: _390  and  _391
REMARK  160  A    between atoms: _391  and  _392
REMARK  161  A    between atoms: _392  and  _393
REMARK  162  A    between atoms: _403  and  _404
REMARK  163  A    between atoms: _409  and  _411
REMARK  164  A    between atoms: _411  and  _412
REMARK  165  A    between atoms: _411  and  _414
REMARK  166  A    between atoms: _414  and  _415
REMARK  167  A    between atoms: _418  and  _420
REMARK  168  A    between atoms: _420  and  _421
REMARK  169  A    between atoms: _420  and  _423
REMARK  170  A    between atoms: _423  and  _424
REMARK  171  A    between atoms: _427  and  _429
REMARK  172  A    between atoms: _429  and  _430
REMARK  173  A    between atoms: _429  and  _432
REMARK  174  A    between atoms: _432  and  _433
REMARK  175  A    between atoms: _433  and  _434
REMARK  176  A    between atoms: _434  and  _435
REMARK  177  A    between atoms: _444  and  _446
REMARK  178  A    between atoms: _446  and  _447
REMARK  179  A    between atoms: _446  and  _449
REMARK  180  A    between atoms: _449  and  _450
REMARK  181  A    between atoms: _460  and  _462
REMARK  182  A    between atoms: _462  and  _463
REMARK  183  A    between atoms: _462  and  _465
REMARK  184  A    between atoms: _465  and  _466
REMARK  185  A    between atoms: _471  and  _472
REMARK  186  A    between atoms: _474  and  _476
REMARK  187  A    between atoms: _476  and  _477
REMARK  188  A    between atoms: _476  and  _479
REMARK  189  A    between atoms: _479  and  _480
REMARK  190  A    between atoms: _480  and  _481
REMARK  191  A    between atoms: _481  and  _482
REMARK  192  A    between atoms: _482  and  _483
REMARK  193  A    between atoms: _487  and  _489
REMARK  194  A    between atoms: _489  and  _490
REMARK  195  A    between atoms: _489  and  _492
REMARK  196  A    between atoms: _492  and  _493
REMARK  197  A    between atoms: _496  and  _498
REMARK  198  A    between atoms: _498  and  _499
REMARK  199  A    between atoms: _498  and  _501
REMARK  200  A    between atoms: _504  and  _506
REMARK  201  A    between atoms: _506  and  _507
REMARK  202  A    between atoms: _506  and  _509
REMARK  203  A    between atoms: _509  and  _510
REMARK  204  A    between atoms: _513  and  _515
REMARK  205  A    between atoms: _515  and  _516
REMARK  206  A    between atoms: _515  and  _518
REMARK  207  A    between atoms: _518  and  _519
REMARK  208  A    between atoms: _521  and  _523
REMARK  209  A    between atoms: _523  and  _524
REMARK  210  A    between atoms: _526  and  _528
REMARK  211  A    between atoms: _528  and  _529
REMARK  212  A    between atoms: _528  and  _531
REMARK  213  A    between atoms: _531  and  _532
REMARK  214  A    between atoms: _535  and  _537
REMARK  215  A    between atoms: _537  and  _538
REMARK  216  A    between atoms: _537  and  _540
REMARK  217  A    between atoms: _540  and  _541
REMARK  218  A    between atoms: _544  and  _546
REMARK  219  A    between atoms: _546  and  _547
REMARK  220  A    between atoms: _546  and  _549
REMARK  221  A    between atoms: _549  and  _550
REMARK  222  A    between atoms: _555  and  _557
REMARK  223  A    between atoms: _557  and  _558
REMARK  224  A    between atoms: _557  and  _560
REMARK  225  A    between atoms: _560  and  _561
REMARK  226  A    between atoms: _564  and  _566
REMARK  227  A    between atoms: _566  and  _567
REMARK  228  A    between atoms: _566  and  _569
REMARK  229  A    between atoms: _569  and  _570
REMARK  230  A    between atoms: _570  and  _571
REMARK  231  A    between atoms: _571  and  _572
REMARK  232  A    between atoms: _581  and  _583
REMARK  233  A    between atoms: _583  and  _584
REMARK  234  A    between atoms: _586  and  _588
REMARK  235  A    between atoms: _588  and  _589
REMARK  236  A    between atoms: _588  and  _591
REMARK  237  A    between atoms: _591  and  _592
REMARK  238  A    between atoms: _592  and  _593
REMARK  239  A    between atoms: _596  and  _598
REMARK  240  A    between atoms: _598  and  _599
REMARK  241  A    between atoms: _598  and  _601
REMARK  242  A    between atoms: _601  and  _602
REMARK  243  A    between atoms: _602  and  _603
REMARK  244  A    between atoms: _603  and  _604
REMARK  245  A    between atoms: _614  and  _615
REMARK  246  A    between atoms: _620  and  _622
REMARK  247  A    between atoms: _622  and  _623
REMARK  248  A    between atoms: _622  and  _625
REMARK  249  A    between atoms: _628  and  _630
REMARK  250  A    between atoms: _630  and  _631
REMARK  251  A    between atoms: _630  and  _633
REMARK  252  A    between atoms: _633  and  _634
REMARK  253  A    between atoms: _634  and  _635
REMARK  254  A    between atoms: _638  and  _640
REMARK  255  A    between atoms: _640  and  _641
REMARK  256  A    between atoms: _640  and  _643
REMARK  257  A    between atoms: _643  and  _644
REMARK  258  A    between atoms: _644  and  _645
REMARK  259  A    between atoms: _645  and  _646
REMARK  260  A    between atoms: _646  and  _647
REMARK  261  A    between atoms: _651  and  _653
REMARK  262  A    between atoms: _653  and  _654
REMARK  263  A    between atoms: _657  and  _659
REMARK  264  A    between atoms: _659  and  _660
REMARK  265  A    between atoms: _659  and  _662
REMARK  266  A    between atoms: _662  and  _663
REMARK  267  A    between atoms: _665  and  _667
REMARK  268  A    between atoms: _667  and  _668
REMARK  269  A    between atoms: _667  and  _670
REMARK  270  A    between atoms: _670  and  _671
REMARK  271  A    between atoms: _671  and  _672
REMARK  272  A    between atoms: _677  and  _679
REMARK  273  A    between atoms: _679  and  _680
REMARK  274  A    between atoms: _679  and  _682
REMARK  275  A    between atoms: _682  and  _683
REMARK  276  A    between atoms: _685  and  _687
REMARK  277  A    between atoms: _687  and  _688
REMARK  278  A    between atoms: _687  and  _690
REMARK  279  A    between atoms: _690  and  _691
REMARK  280  A    between atoms: _694  and  _696
REMARK  281  A    between atoms: _696  and  _697
REMARK  282  A    between atoms: _696  and  _699
REMARK  283  A    between atoms: _699  and  _700
REMARK  284  A    between atoms: _703  and  _705
REMARK  285  A    between atoms: _705  and  _706
REMARK  286  A    between atoms: _705  and  _708
REMARK  287  A    between atoms: _711  and  _713
REMARK  288  A    between atoms: _713  and  _714
REMARK  289  A    between atoms: _716  and  _718
REMARK  290  A    between atoms: _718  and  _719
REMARK  291  A    between atoms: _722  and  _724
REMARK  292  A    between atoms: _724  and  _725
REMARK  293  A    between atoms: _724  and  _727
REMARK                            x       y       z     vdW  Elec       q    Type
REMARK                         _______ _______ _______ _____ _____    ______ ____
ROOT
ATOM      1  O   HOH     1      22.858  31.994  33.271  0.00  0.00    +0.000 OA
ENDROOT
TORSDOF 0
REMARK  Name = ../refined-set-2016/1m4h/1m4h_pocket.pdb
REMARK  293 active torsions:
REMARK  status: ('A' for Active; 'I' for Inactive)
REMARK    1  A    between atoms: _1  and  _3
REMARK    2  A    between atoms: _3  and  _4
REMARK    3  A    between atoms: _3  and  _6
REMARK    4  A    between atoms: _6  and  _7
REMARK    5  A    between atoms: _7  and  _8
REMARK    6  A    between atoms: _8  and  _9
REMARK    7  A    between atoms: _9  and  _10
REMARK    8  A    between atoms: _14  and  _16
REMARK    9  A    between atoms: _16  and  _17
REMARK   10  A    between atoms: _16  and  _19
REMARK   11  A    between atoms: _19  and  _20
REMARK   12  A    between atoms: _22  and  _24
REMARK   13  A    between atoms: _24  and  _25
REMARK   14  A    between atoms: _27  and  _29
REMARK   15  A    between atoms: _29  and  _30
REMARK   16  A    between atoms: _29  and  _32
REMARK   17  A    between atoms: _32  and  _33
REMARK   18  A    between atoms: _33  and  _34
REMARK   19  A    between atoms: _39  and  _41
REMARK   20  A    between atoms: _41  and  _42
REMARK   21  A    between atoms: _44  and  _46
REMARK   22  A    between atoms: _46  and  _47
REMARK   23  A    between atoms: _46  and  _49
REMARK   24  A    between atoms: _49  and  _50
REMARK   25  A    between atoms: _55  and  _56
REMARK   26  A    between atoms: _58  and  _60
REMARK   27  A    between atoms: _60  and  _61
REMARK   28  A    between atoms: _60  and  _63
REMARK   29  A    between atoms: _63  and  _64
REMARK   30  A    between atoms: _67  and  _69
REMARK   31  A    between atoms: _69  and  _70
REMARK   32  A    between atoms: _69  and  _72
REMARK   33  A    between atoms: _75  and  _77
REMARK   34  A    between atoms: _77  and  _78
REMARK   35  A    between atoms: _77  and  _80
REMARK   36  A    between atoms: _80  and  _81
REMARK   37  A    between atoms: _84  and  _86
REMARK   38  A    between atoms: _86  and  _87
REMARK   39  A    between atoms: _86  and  _89
REMARK   40  A    between atoms: _89  and  _90
REMARK   41  A    between atoms: _93  and  _95
REMARK   42  A    between atoms: _95  and  _96
REMARK   43  A    between atoms: _98  and  _100
REMARK   44  A    between atoms: _100  and  _101
REMARK   45  A    between atoms: _100  and  _103
REMARK   46  A    between atoms: _103  and  _104
REMARK   47  A    between atoms: _106  and  _108
REMARK   48  A    between atoms: _108  and  _109
REMARK   49  A    between atoms: _108  and  _111
REMARK   50  A    between atoms: _111  and  _112
REMARK   51  A    between atoms: _114  and  _116
REMARK   52  A    between atoms: _116  and  _117
REMARK   53  A    between atoms: _116  and  _119
REMARK   54  A    between atoms: _119  and  _120
REMARK   55  A    between atoms: _125  and  _127
REMARK   56  A    between atoms: _127  and  _128
REMARK   57  A    between atoms: _127  and  _130
REMARK   58  A    between atoms: _130  and  _131
REMARK   59  A    between atoms: _136  and  _137
REMARK   60  A    between atoms: _139  and  _141
REMARK   61  A    between atoms: _141  and  _142
REMARK   62  A    between atoms: _141  and  _144
REMARK   63  A    between atoms: _148  and  _149
REMARK   64  A    between atoms: _154  and  _156
REMARK   65  A    between atoms: _156  and  _157
REMARK   66  A    between atoms: _156  and  _159
REMARK   67  A    between atoms: _159  and  _160
REMARK   68  A    between atoms: _165  and  _166
REMARK   69  A    between atoms: _168  and  _170
REMARK   70  A    between atoms: _170  and  _171
REMARK   71  A    between atoms: _170  and  _173
REMARK   72  A    between atoms: _173  and  _174
REMARK   73  A    between atoms: _177  and  _179
REMARK   74  A    between atoms: _179  and  _180
REMARK   75  A    between atoms: _179  and  _182
REMARK   76  A    between atoms: _182  and  _183
REMARK   77  A    between atoms: _183  and  _184
REMARK   78  A    between atoms: _189  and  _191
REMARK   79  A    between atoms: _191  and  _192
REMARK   80  A    between atoms: _194  and  _196
REMARK   81  A    between atoms: _196  and  _197
REMARK   82  A    between atoms: _196  and  _199
REMARK   83  A    between atoms: _199  and  _200
REMARK   84  A    between atoms: _200  and  _201
REMARK   85  A    between atoms: _201  and  _202
REMARK   86  A    between atoms: _202  and  _203
REMARK   87  A    between atoms: _207  and  _209
REMARK   88  A    between atoms: _209  and  _210
REMARK   89  A    between atoms: _209  and  _212
REMARK   90  A    between atoms: _212  and  _213
REMARK   91  A    between atoms: _223  and  _225
REMARK   92  A    between atoms: _225  and  _226
REMARK   93  A    between atoms: _225  and  _228
REMARK   94  A    between atoms: _228  and  _229
REMARK   95  A    between atoms: _232  and  _234
REMARK   96  A    between atoms: _234  and  _235
REMARK   97  A    between atoms: _234  and  _237
REMARK   98  A    between atoms: _237  and  _238
REMARK   99  A    between atoms: _238  and  _239
REMARK  100  A    between atoms: _239  and  _240
REMARK  101  A    between atoms: _240  and  _241
REMARK  102  A    between atoms: _245  and  _247
REMARK  103  A    between atoms: _247  and  _248
REMARK  104  A    between atoms: _247  and  _250
REMARK  105  A    between atoms: _250  and  _251
REMARK  106  A    between atoms: _257  and  _259
REMARK  107  A    between atoms: _259  and  _260
REMARK  108  A    between atoms: _259  and  _262
REMARK  109  A    between atoms: _262  and  _263
REMARK  110  A    between atoms: _269  and  _271
REMARK  111  A    between atoms: _271  and  _272
REMARK  112  A    between atoms: _271  and  _274
REMARK  113  A    between atoms: _274  and  _275
REMARK  114  A    between atoms: _278  and  _280
REMARK  115  A    between atoms: _280  and  _281
REMARK  116  A    between atoms: _280  and  _283
REMARK  117  A    between atoms: _283  and  _284
REMARK  118  A    between atoms: _286  and  _288
REMARK  119  A    between atoms: _288  and  _289
REMARK  120  A    between atoms: _288  and  _291
REMARK  121  A    between atoms: _291  and  _292
REMARK  122  A    between atoms: _302  and  _304
REMARK  123  A    between atoms: _304  and  _305
REMARK  124  A    between atoms: _307  and  _309
REMARK  125  A    between atoms: _309  and  _310
REMARK  126  A    between atoms: _309  and  _312
REMARK  127  A    between atoms: _312  and  _313
REMARK  128  A    between atoms: _316  and  _318
REMARK  129  A    between atoms: _318  and  _319
REMARK  130  A    between atoms: _318  and  _321
REMARK  131  A    between atoms: _321  and  _322
REMARK  132  A    between atoms: _325  and  _327
REMARK  133  A    between atoms: _327  and  _328
REMARK  134  A    between atoms: _327  and  _330
REMARK  135  A    between atoms: _330  and  _331
REMARK  136  A    between atoms: _334  and  _336
REMARK  137  A    between atoms: _336  and  _337
REMARK  138  A    between atoms: _340  and  _342
REMARK  139  A    between atoms: _342  and  _343
REMARK  140  A    between atoms: _342  and  _345
REMARK  141  A    between atoms: _345  and  _346
REMARK  142  A    between atoms: _351  and  _352
REMARK  143  A    between atoms: _354  and  _356
REMARK  144  A    between atoms: _356  and  _357
REMARK  145  A    between atoms: _360  and  _362
REMARK  146  A    between atoms: _362  and  _363
REMARK  147  A    between atoms: _362  and  _365
REMARK  148  A    between atoms: _365  and  _366
REMARK  149  A    between atoms: _366  and  _367
REMARK  150  A    between atoms: _370  and  _372
REMARK  151  A    between atoms: _372  and  _373
REMARK  152  A    between atoms: _372  and  _375
REMARK  153  A    between atoms: _375  and  _376
REMARK  154  A    between atoms: _379  and  _381
REMARK  155  A    between atoms: _381  and  _382
REMARK  156  A    between atoms: _385  and  _387
REMARK  157  A    between atoms: _387  and  _388
REMARK  158  A    between atoms: _387  and  _390
REMARK  159  A    between atoms: _390  and  _391
REMARK  160  A    between atoms: _391  and  _392
REMARK  161  A    between atoms: _392  and  _393
REMARK  162  A    between atoms: _403  and  _404
REMARK  163  A    between atoms: _409  and  _411
REMARK  164  A    between atoms: _411  and  _412
REMARK  165  A    between atoms: _411  and  _414
REMARK  166  A    between atoms: _414  and  _415
REMARK  167  A    between atoms: _418  and  _420
REMARK  168  A    between atoms: _420  and  _421
REMARK  169  A    between atoms: _420  and  _423
REMARK  170  A    between atoms: _423  and  _424
REMARK  171  A    between atoms: _427  and  _429
REMARK  172  A    between atoms: _429  and  _430
REMARK  173  A    between atoms: _429  and  _432
REMARK  174  A    between atoms: _432  and  _433
REMARK  175  A    between atoms: _433  and  _434
REMARK  176  A    between atoms: _434  and  _435
REMARK  177  A    between atoms: _444  and  _446
REMARK  178  A    between atoms: _446  and  _447
REMARK  179  A    between atoms: _446  and  _449
REMARK  180  A    between atoms: _449  and  _450
REMARK  181  A    between atoms: _460  and  _462
REMARK  182  A    between atoms: _462  and  _463
REMARK  183  A    between atoms: _462  and  _465
REMARK  184  A    between atoms: _465  and  _466
REMARK  185  A    between atoms: _471  and  _472
REMARK  186  A    between atoms: _474  and  _476
REMARK  187  A    between atoms: _476  and  _477
REMARK  188  A    between atoms: _476  and  _479
REMARK  189  A    between atoms: _479  and  _480
REMARK  190  A    between atoms: _480  and  _481
REMARK  191  A    between atoms: _481  and  _482
REMARK  192  A    between atoms: _482  and  _483
REMARK  193  A    between atoms: _487  and  _489
REMARK  194  A    between atoms: _489  and  _490
REMARK  195  A    between atoms: _489  and  _492
REMARK  196  A    between atoms: _492  and  _493
REMARK  197  A    between atoms: _496  and  _498
REMARK  198  A    between atoms: _498  and  _499
REMARK  199  A    between atoms: _498  and  _501
REMARK  200  A    between atoms: _504  and  _506
REMARK  201  A    between atoms: _506  and  _507
REMARK  202  A    between atoms: _506  and  _509
REMARK  203  A    between atoms: _509  and  _510
REMARK  204  A    between atoms: _513  and  _515
REMARK  205  A    between atoms: _515  and  _516
REMARK  206  A    between atoms: _515  and  _518
REMARK  207  A    between atoms: _518  and  _519
REMARK  208  A    between atoms: _521  and  _523
REMARK  209  A    between atoms: _523  and  _524
REMARK  210  A    between atoms: _526  and  _528
REMARK  211  A    between atoms: _528  and  _529
REMARK  212  A    between atoms: _528  and  _531
REMARK  213  A    between atoms: _531  and  _532
REMARK  214  A    between atoms: _535  and  _537
REMARK  215  A    between atoms: _537  and  _538
REMARK  216  A    between atoms: _537  and  _540
REMARK  217  A    between atoms: _540  and  _541
REMARK  218  A    between atoms: _544  and  _546
REMARK  219  A    between atoms: _546  and  _547
REMARK  220  A    between atoms: _546  and  _549
REMARK  221  A    between atoms: _549  and  _550
REMARK  222  A    between atoms: _555  and  _557
REMARK  223  A    between atoms: _557  and  _558
REMARK  224  A    between atoms: _557  and  _560
REMARK  225  A    between atoms: _560  and  _561
REMARK  226  A    between atoms: _564  and  _566
REMARK  227  A    between atoms: _566  and  _567
REMARK  228  A    between atoms: _566  and  _569
REMARK  229  A    between atoms: _569  and  _570
REMARK  230  A    between atoms: _570  and  _571
REMARK  231  A    between atoms: _571  and  _572
REMARK  232  A    between atoms: _581  and  _583
REMARK  233  A    between atoms: _583  and  _584
REMARK  234  A    between atoms: _586  and  _588
REMARK  235  A    between atoms: _588  and  _589
REMARK  236  A    between atoms: _588  and  _591
REMARK  237  A    between atoms: _591  and  _592
REMARK  238  A    between atoms: _592  and  _593
REMARK  239  A    between atoms: _596  and  _598
REMARK  240  A    between atoms: _598  and  _599
REMARK  241  A    between atoms: _598  and  _601
REMARK  242  A    between atoms: _601  and  _602
REMARK  243  A    between atoms: _602  and  _603
REMARK  244  A    between atoms: _603  and  _604
REMARK  245  A    between atoms: _614  and  _615
REMARK  246  A    between atoms: _620  and  _622
REMARK  247  A    between atoms: _622  and  _623
REMARK  248  A    between atoms: _622  and  _625
REMARK  249  A    between atoms: _628  and  _630
REMARK  250  A    between atoms: _630  and  _631
REMARK  251  A    between atoms: _630  and  _633
REMARK  252  A    between atoms: _633  and  _634
REMARK  253  A    between atoms: _634  and  _635
REMARK  254  A    between atoms: _638  and  _640
REMARK  255  A    between atoms: _640  and  _641
REMARK  256  A    between atoms: _640  and  _643
REMARK  257  A    between atoms: _643  and  _644
REMARK  258  A    between atoms: _644  and  _645
REMARK  259  A    between atoms: _645  and  _646
REMARK  260  A    between atoms: _646  and  _647
REMARK  261  A    between atoms: _651  and  _653
REMARK  262  A    between atoms: _653  and  _654
REMARK  263  A    between atoms: _657  and  _659
REMARK  264  A    between atoms: _659  and  _660
REMARK  265  A    between atoms: _659  and  _662
REMARK  266  A    between atoms: _662  and  _663
REMARK  267  A    between atoms: _665  and  _667
REMARK  268  A    between atoms: _667  and  _668
REMARK  269  A    between atoms: _667  and  _670
REMARK  270  A    between atoms: _670  and  _671
REMARK  271  A    between atoms: _671  and  _672
REMARK  272  A    between atoms: _677  and  _679
REMARK  273  A    between atoms: _679  and  _680
REMARK  274  A    between atoms: _679  and  _682
REMARK  275  A    between atoms: _682  and  _683
REMARK  276  A    between atoms: _685  and  _687
REMARK  277  A    between atoms: _687  and  _688
REMARK  278  A    between atoms: _687  and  _690
REMARK  279  A    between atoms: _690  and  _691
REMARK  280  A    between atoms: _694  and  _696
REMARK  281  A    between atoms: _696  and  _697
REMARK  282  A    between atoms: _696  and  _699
REMARK  283  A    between atoms: _699  and  _700
REMARK  284  A    between atoms: _703  and  _705
REMARK  285  A    between atoms: _705  and  _706
REMARK  286  A    between atoms: _705  and  _708
REMARK  287  A    between atoms: _711  and  _713
REMARK  288  A    between atoms: _713  and  _714
REMARK  289  A    between atoms: _716  and  _718
REMARK  290  A    between atoms: _718  and  _719
REMARK  291  A    between atoms: _722  and  _724
REMARK  292  A    between atoms: _724  and  _725
REMARK  293  A    between atoms: _724  and  _727
REMARK                            x       y       z     vdW  Elec       q    Type
REMARK                         _______ _______ _______ _____ _____    ______ ____
ROOT
ATOM      1  O   HOH     1      14.873  35.156  12.834  0.00  0.00    +0.000 OA
ENDROOT
TORSDOF 0
REMARK  Name = ../refined-set-2016/1m4h/1m4h_pocket.pdb
REMARK  293 active torsions:
REMARK  status: ('A' for Active; 'I' for Inactive)
REMARK    1  A    between atoms: _1  and  _3
REMARK    2  A    between atoms: _3  and  _4
REMARK    3  A    between atoms: _3  and  _6
REMARK    4  A    between atoms: _6  and  _7
REMARK    5  A    between atoms: _7  and  _8
REMARK    6  A    between atoms: _8  and  _9
REMARK    7  A    between atoms: _9  and  _10
REMARK    8  A    between atoms: _14  and  _16
REMARK    9  A    between atoms: _16  and  _17
REMARK   10  A    between atoms: _16  and  _19
REMARK   11  A    between atoms: _19  and  _20
REMARK   12  A    between atoms: _22  and  _24
REMARK   13  A    between atoms: _24  and  _25
REMARK   14  A    between atoms: _27  and  _29
REMARK   15  A    between atoms: _29  and  _30
REMARK   16  A    between atoms: _29  and  _32
REMARK   17  A    between atoms: _32  and  _33
REMARK   18  A    between atoms: _33  and  _34
REMARK   19  A    between atoms: _39  and  _41
REMARK   20  A    between atoms: _41  and  _42
REMARK   21  A    between atoms: _44  and  _46
REMARK   22  A    between atoms: _46  and  _47
REMARK   23  A    between atoms: _46  and  _49
REMARK   24  A    between atoms: _49  and  _50
REMARK   25  A    between atoms: _55  and  _56
REMARK   26  A    between atoms: _58  and  _60
REMARK   27  A    between atoms: _60  and  _61
REMARK   28  A    between atoms: _60  and  _63
REMARK   29  A    between atoms: _63  and  _64
REMARK   30  A    between atoms: _67  and  _69
REMARK   31  A    between atoms: _69  and  _70
REMARK   32  A    between atoms: _69  and  _72
REMARK   33  A    between atoms: _75  and  _77
REMARK   34  A    between atoms: _77  and  _78
REMARK   35  A    between atoms: _77  and  _80
REMARK   36  A    between atoms: _80  and  _81
REMARK   37  A    between atoms: _84  and  _86
REMARK   38  A    between atoms: _86  and  _87
REMARK   39  A    between atoms: _86  and  _89
REMARK   40  A    between atoms: _89  and  _90
REMARK   41  A    between atoms: _93  and  _95
REMARK   42  A    between atoms: _95  and  _96
REMARK   43  A    between atoms: _98  and  _100
REMARK   44  A    between atoms: _100  and  _101
REMARK   45  A    between atoms: _100  and  _103
REMARK   46  A    between atoms: _103  and  _104
REMARK   47  A    between atoms: _106  and  _108
REMARK   48  A    between atoms: _108  and  _109
REMARK   49  A    between atoms: _108  and  _111
REMARK   50  A    between atoms: _111  and  _112
REMARK   51  A    between atoms: _114  and  _116
REMARK   52  A    between atoms: _116  and  _117
REMARK   53  A    between atoms: _116  and  _119
REMARK   54  A    between atoms: _119  and  _120
REMARK   55  A    between atoms: _125  and  _127
REMARK   56  A    between atoms: _127  and  _128
REMARK   57  A    between atoms: _127  and  _130
REMARK   58  A    between atoms: _130  and  _131
REMARK   59  A    between atoms: _136  and  _137
REMARK   60  A    between atoms: _139  and  _141
REMARK   61  A    between atoms: _141  and  _142
REMARK   62  A    between atoms: _141  and  _144
REMARK   63  A    between atoms: _148  and  _149
REMARK   64  A    between atoms: _154  and  _156
REMARK   65  A    between atoms: _156  and  _157
REMARK   66  A    between atoms: _156  and  _159
REMARK   67  A    between atoms: _159  and  _160
REMARK   68  A    between atoms: _165  and  _166
REMARK   69  A    between atoms: _168  and  _170
REMARK   70  A    between atoms: _170  and  _171
REMARK   71  A    between atoms: _170  and  _173
REMARK   72  A    between atoms: _173  and  _174
REMARK   73  A    between atoms: _177  and  _179
REMARK   74  A    between atoms: _179  and  _180
REMARK   75  A    between atoms: _179  and  _182
REMARK   76  A    between atoms: _182  and  _183
REMARK   77  A    between atoms: _183  and  _184
REMARK   78  A    between atoms: _189  and  _191
REMARK   79  A    between atoms: _191  and  _192
REMARK   80  A    between atoms: _194  and  _196
REMARK   81  A    between atoms: _196  and  _197
REMARK   82  A    between atoms: _196  and  _199
REMARK   83  A    between atoms: _199  and  _200
REMARK   84  A    between atoms: _200  and  _201
REMARK   85  A    between atoms: _201  and  _202
REMARK   86  A    between atoms: _202  and  _203
REMARK   87  A    between atoms: _207  and  _209
REMARK   88  A    between atoms: _209  and  _210
REMARK   89  A    between atoms: _209  and  _212
REMARK   90  A    between atoms: _212  and  _213
REMARK   91  A    between atoms: _223  and  _225
REMARK   92  A    between atoms: _225  and  _226
REMARK   93  A    between atoms: _225  and  _228
REMARK   94  A    between atoms: _228  and  _229
REMARK   95  A    between atoms: _232  and  _234
REMARK   96  A    between atoms: _234  and  _235
REMARK   97  A    between atoms: _234  and  _237
REMARK   98  A    between atoms: _237  and  _238
REMARK   99  A    between atoms: _238  and  _239
REMARK  100  A    between atoms: _239  and  _240
REMARK  101  A    between atoms: _240  and  _241
REMARK  102  A    between atoms: _245  and  _247
REMARK  103  A    between atoms: _247  and  _248
REMARK  104  A    between atoms: _247  and  _250
REMARK  105  A    between atoms: _250  and  _251
REMARK  106  A    between atoms: _257  and  _259
REMARK  107  A    between atoms: _259  and  _260
REMARK  108  A    between atoms: _259  and  _262
REMARK  109  A    between atoms: _262  and  _263
REMARK  110  A    between atoms: _269  and  _271
REMARK  111  A    between atoms: _271  and  _272
REMARK  112  A    between atoms: _271  and  _274
REMARK  113  A    between atoms: _274  and  _275
REMARK  114  A    between atoms: _278  and  _280
REMARK  115  A    between atoms: _280  and  _281
REMARK  116  A    between atoms: _280  and  _283
REMARK  117  A    between atoms: _283  and  _284
REMARK  118  A    between atoms: _286  and  _288
REMARK  119  A    between atoms: _288  and  _289
REMARK  120  A    between atoms: _288  and  _291
REMARK  121  A    between atoms: _291  and  _292
REMARK  122  A    between atoms: _302  and  _304
REMARK  123  A    between atoms: _304  and  _305
REMARK  124  A    between atoms: _307  and  _309
REMARK  125  A    between atoms: _309  and  _310
REMARK  126  A    between atoms: _309  and  _312
REMARK  127  A    between atoms: _312  and  _313
REMARK  128  A    between atoms: _316  and  _318
REMARK  129  A    between atoms: _318  and  _319
REMARK  130  A    between atoms: _318  and  _321
REMARK  131  A    between atoms: _321  and  _322
REMARK  132  A    between atoms: _325  and  _327
REMARK  133  A    between atoms: _327  and  _328
REMARK  134  A    between atoms: _327  and  _330
REMARK  135  A    between atoms: _330  and  _331
REMARK  136  A    between atoms: _334  and  _336
REMARK  137  A    between atoms: _336  and  _337
REMARK  138  A    between atoms: _340  and  _342
REMARK  139  A    between atoms: _342  and  _343
REMARK  140  A    between atoms: _342  and  _345
REMARK  141  A    between atoms: _345  and  _346
REMARK  142  A    between atoms: _351  and  _352
REMARK  143  A    between atoms: _354  and  _356
REMARK  144  A    between atoms: _356  and  _357
REMARK  145  A    between atoms: _360  and  _362
REMARK  146  A    between atoms: _362  and  _363
REMARK  147  A    between atoms: _362  and  _365
REMARK  148  A    between atoms: _365  and  _366
REMARK  149  A    between atoms: _366  and  _367
REMARK  150  A    between atoms: _370  and  _372
REMARK  151  A    between atoms: _372  and  _373
REMARK  152  A    between atoms: _372  and  _375
REMARK  153  A    between atoms: _375  and  _376
REMARK  154  A    between atoms: _379  and  _381
REMARK  155  A    between atoms: _381  and  _382
REMARK  156  A    between atoms: _385  and  _387
REMARK  157  A    between atoms: _387  and  _388
REMARK  158  A    between atoms: _387  and  _390
REMARK  159  A    between atoms: _390  and  _391
REMARK  160  A    between atoms: _391  and  _392
REMARK  161  A    between atoms: _392  and  _393
REMARK  162  A    between atoms: _403  and  _404
REMARK  163  A    between atoms: _409  and  _411
REMARK  164  A    between atoms: _411  and  _412
REMARK  165  A    between atoms: _411  and  _414
REMARK  166  A    between atoms: _414  and  _415
REMARK  167  A    between atoms: _418  and  _420
REMARK  168  A    between atoms: _420  and  _421
REMARK  169  A    between atoms: _420  and  _423
REMARK  170  A    between atoms: _423  and  _424
REMARK  171  A    between atoms: _427  and  _429
REMARK  172  A    between atoms: _429  and  _430
REMARK  173  A    between atoms: _429  and  _432
REMARK  174  A    between atoms: _432  and  _433
REMARK  175  A    between atoms: _433  and  _434
REMARK  176  A    between atoms: _434  and  _435
REMARK  177  A    between atoms: _444  and  _446
REMARK  178  A    between atoms: _446  and  _447
REMARK  179  A    between atoms: _446  and  _449
REMARK  180  A    between atoms: _449  and  _450
REMARK  181  A    between atoms: _460  and  _462
REMARK  182  A    between atoms: _462  and  _463
REMARK  183  A    between atoms: _462  and  _465
REMARK  184  A    between atoms: _465  and  _466
REMARK  185  A    between atoms: _471  and  _472
REMARK  186  A    between atoms: _474  and  _476
REMARK  187  A    between atoms: _476  and  _477
REMARK  188  A    between atoms: _476  and  _479
REMARK  189  A    between atoms: _479  and  _480
REMARK  190  A    between atoms: _480  and  _481
REMARK  191  A    between atoms: _481  and  _482
REMARK  192  A    between atoms: _482  and  _483
REMARK  193  A    between atoms: _487  and  _489
REMARK  194  A    between atoms: _489  and  _490
REMARK  195  A    between atoms: _489  and  _492
REMARK  196  A    between atoms: _492  and  _493
REMARK  197  A    between atoms: _496  and  _498
REMARK  198  A    between atoms: _498  and  _499
REMARK  199  A    between atoms: _498  and  _501
REMARK  200  A    between atoms: _504  and  _506
REMARK  201  A    between atoms: _506  and  _507
REMARK  202  A    between atoms: _506  and  _509
REMARK  203  A    between atoms: _509  and  _510
REMARK  204  A    between atoms: _513  and  _515
REMARK  205  A    between atoms: _515  and  _516
REMARK  206  A    between atoms: _515  and  _518
REMARK  207  A    between atoms: _518  and  _519
REMARK  208  A    between atoms: _521  and  _523
REMARK  209  A    between atoms: _523  and  _524
REMARK  210  A    between atoms: _526  and  _528
REMARK  211  A    between atoms: _528  and  _529
REMARK  212  A    between atoms: _528  and  _531
REMARK  213  A    between atoms: _531  and  _532
REMARK  214  A    between atoms: _535  and  _537
REMARK  215  A    between atoms: _537  and  _538
REMARK  216  A    between atoms: _537  and  _540
REMARK  217  A    between atoms: _540  and  _541
REMARK  218  A    between atoms: _544  and  _546
REMARK  219  A    between atoms: _546  and  _547
REMARK  220  A    between atoms: _546  and  _549
REMARK  221  A    between atoms: _549  and  _550
REMARK  222  A    between atoms: _555  and  _557
REMARK  223  A    between atoms: _557  and  _558
REMARK  224  A    between atoms: _557  and  _560
REMARK  225  A    between atoms: _560  and  _561
REMARK  226  A    between atoms: _564  and  _566
REMARK  227  A    between atoms: _566  and  _567
REMARK  228  A    between atoms: _566  and  _569
REMARK  229  A    between atoms: _569  and  _570
REMARK  230  A    between atoms: _570  and  _571
REMARK  231  A    between atoms: _571  and  _572
REMARK  232  A    between atoms: _581  and  _583
REMARK  233  A    between atoms: _583  and  _584
REMARK  234  A    between atoms: _586  and  _588
REMARK  235  A    between atoms: _588  and  _589
REMARK  236  A    between atoms: _588  and  _591
REMARK  237  A    between atoms: _591  and  _592
REMARK  238  A    between atoms: _592  and  _593
REMARK  239  A    between atoms: _596  and  _598
REMARK  240  A    between atoms: _598  and  _599
REMARK  241  A    between atoms: _598  and  _601
REMARK  242  A    between atoms: _601  and  _602
REMARK  243  A    between atoms: _602  and  _603
REMARK  244  A    between atoms: _603  and  _604
REMARK  245  A    between atoms: _614  and  _615
REMARK  246  A    between atoms: _620  and  _622
REMARK  247  A    between atoms: _622  and  _623
REMARK  248  A    between atoms: _622  and  _625
REMARK  249  A    between atoms: _628  and  _630
REMARK  250  A    between atoms: _630  and  _631
REMARK  251  A    between atoms: _630  and  _633
REMARK  252  A    between atoms: _633  and  _634
REMARK  253  A    between atoms: _634  and  _635
REMARK  254  A    between atoms: _638  and  _640
REMARK  255  A    between atoms: _640  and  _641
REMARK  256  A    between atoms: _640  and  _643
REMARK  257  A    between atoms: _643  and  _644
REMARK  258  A    between atoms: _644  and  _645
REMARK  259  A    between atoms: _645  and  _646
REMARK  260  A    between atoms: _646  and  _647
REMARK  261  A    between atoms: _651  and  _653
REMARK  262  A    between atoms: _653  and  _654
REMARK  263  A    between atoms: _657  and  _659
REMARK  264  A    between atoms: _659  and  _660
REMARK  265  A    between atoms: _659  and  _662
REMARK  266  A    between atoms: _662  and  _663
REMARK  267  A    between atoms: _665  and  _667
REMARK  268  A    between atoms: _667  and  _668
REMARK  269  A    between atoms: _667  and  _670
REMARK  270  A    between atoms: _670  and  _671
REMARK  271  A    between atoms: _671  and  _672
REMARK  272  A    between atoms: _677  and  _679
REMARK  273  A    between atoms: _679  and  _680
REMARK  274  A    between atoms: _679  and  _682
REMARK  275  A    between atoms: _682  and  _683
REMARK  276  A    between atoms: _685  and  _687
REMARK  277  A    between atoms: _687  and  _688
REMARK  278  A    between atoms: _687  and  _690
REMARK  279  A    between atoms: _690  and  _691
REMARK  280  A    between atoms: _694  and  _696
REMARK  281  A    between atoms: _696  and  _697
REMARK  282  A    between atoms: _696  and  _699
REMARK  283  A    between atoms: _699  and  _700
REMARK  284  A    between atoms: _703  and  _705
REMARK  285  A    between atoms: _705  and  _706
REMARK  286  A    between atoms: _705  and  _708
REMARK  287  A    between atoms: _711  and  _713
REMARK  288  A    between atoms: _713  and  _714
REMARK  289  A    between atoms: _716  and  _718
REMARK  290  A    between atoms: _718  and  _719
REMARK  291  A    between atoms: _722  and  _724
REMARK  292  A    between atoms: _724  and  _725
REMARK  293  A    between atoms: _724  and  _727
REMARK                            x       y       z     vdW  Elec       q    Type
REMARK                         _______ _______ _______ _____ _____    ______ ____
ROOT
ATOM      1  O   HOH     1       7.888  23.268  24.068  0.00  0.00    +0.000 OA
ENDROOT
TORSDOF 0
REMARK  Name = ../refined-set-2016/1m4h/1m4h_pocket.pdb
REMARK  293 active torsions:
REMARK  status: ('A' for Active; 'I' for Inactive)
REMARK    1  A    between atoms: _1  and  _3
REMARK    2  A    between atoms: _3  and  _4
REMARK    3  A    between atoms: _3  and  _6
REMARK    4  A    between atoms: _6  and  _7
REMARK    5  A    between atoms: _7  and  _8
REMARK    6  A    between atoms: _8  and  _9
REMARK    7  A    between atoms: _9  and  _10
REMARK    8  A    between atoms: _14  and  _16
REMARK    9  A    between atoms: _16  and  _17
REMARK   10  A    between atoms: _16  and  _19
REMARK   11  A    between atoms: _19  and  _20
REMARK   12  A    between atoms: _22  and  _24
REMARK   13  A    between atoms: _24  and  _25
REMARK   14  A    between atoms: _27  and  _29
REMARK   15  A    between atoms: _29  and  _30
REMARK   16  A    between atoms: _29  and  _32
REMARK   17  A    between atoms: _32  and  _33
REMARK   18  A    between atoms: _33  and  _34
REMARK   19  A    between atoms: _39  and  _41
REMARK   20  A    between atoms: _41  and  _42
REMARK   21  A    between atoms: _44  and  _46
REMARK   22  A    between atoms: _46  and  _47
REMARK   23  A    between atoms: _46  and  _49
REMARK   24  A    between atoms: _49  and  _50
REMARK   25  A    between atoms: _55  and  _56
REMARK   26  A    between atoms: _58  and  _60
REMARK   27  A    between atoms: _60  and  _61
REMARK   28  A    between atoms: _60  and  _63
REMARK   29  A    between atoms: _63  and  _64
REMARK   30  A    between atoms: _67  and  _69
REMARK   31  A    between atoms: _69  and  _70
REMARK   32  A    between atoms: _69  and  _72
REMARK   33  A    between atoms: _75  and  _77
REMARK   34  A    between atoms: _77  and  _78
REMARK   35  A    between atoms: _77  and  _80
REMARK   36  A    between atoms: _80  and  _81
REMARK   37  A    between atoms: _84  and  _86
REMARK   38  A    between atoms: _86  and  _87
REMARK   39  A    between atoms: _86  and  _89
REMARK   40  A    between atoms: _89  and  _90
REMARK   41  A    between atoms: _93  and  _95
REMARK   42  A    between atoms: _95  and  _96
REMARK   43  A    between atoms: _98  and  _100
REMARK   44  A    between atoms: _100  and  _101
REMARK   45  A    between atoms: _100  and  _103
REMARK   46  A    between atoms: _103  and  _104
REMARK   47  A    between atoms: _106  and  _108
REMARK   48  A    between atoms: _108  and  _109
REMARK   49  A    between atoms: _108  and  _111
REMARK   50  A    between atoms: _111  and  _112
REMARK   51  A    between atoms: _114  and  _116
REMARK   52  A    between atoms: _116  and  _117
REMARK   53  A    between atoms: _116  and  _119
REMARK   54  A    between atoms: _119  and  _120
REMARK   55  A    between atoms: _125  and  _127
REMARK   56  A    between atoms: _127  and  _128
REMARK   57  A    between atoms: _127  and  _130
REMARK   58  A    between atoms: _130  and  _131
REMARK   59  A    between atoms: _136  and  _137
REMARK   60  A    between atoms: _139  and  _141
REMARK   61  A    between atoms: _141  and  _142
REMARK   62  A    between atoms: _141  and  _144
REMARK   63  A    between atoms: _148  and  _149
REMARK   64  A    between atoms: _154  and  _156
REMARK   65  A    between atoms: _156  and  _157
REMARK   66  A    between atoms: _156  and  _159
REMARK   67  A    between atoms: _159  and  _160
REMARK   68  A    between atoms: _165  and  _166
REMARK   69  A    between atoms: _168  and  _170
REMARK   70  A    between atoms: _170  and  _171
REMARK   71  A    between atoms: _170  and  _173
REMARK   72  A    between atoms: _173  and  _174
REMARK   73  A    between atoms: _177  and  _179
REMARK   74  A    between atoms: _179  and  _180
REMARK   75  A    between atoms: _179  and  _182
REMARK   76  A    between atoms: _182  and  _183
REMARK   77  A    between atoms: _183  and  _184
REMARK   78  A    between atoms: _189  and  _191
REMARK   79  A    between atoms: _191  and  _192
REMARK   80  A    between atoms: _194  and  _196
REMARK   81  A    between atoms: _196  and  _197
REMARK   82  A    between atoms: _196  and  _199
REMARK   83  A    between atoms: _199  and  _200
REMARK   84  A    between atoms: _200  and  _201
REMARK   85  A    between atoms: _201  and  _202
REMARK   86  A    between atoms: _202  and  _203
REMARK   87  A    between atoms: _207  and  _209
REMARK   88  A    between atoms: _209  and  _210
REMARK   89  A    between atoms: _209  and  _212
REMARK   90  A    between atoms: _212  and  _213
REMARK   91  A    between atoms: _223  and  _225
REMARK   92  A    between atoms: _225  and  _226
REMARK   93  A    between atoms: _225  and  _228
REMARK   94  A    between atoms: _228  and  _229
REMARK   95  A    between atoms: _232  and  _234
REMARK   96  A    between atoms: _234  and  _235
REMARK   97  A    between atoms: _234  and  _237
REMARK   98  A    between atoms: _237  and  _238
REMARK   99  A    between atoms: _238  and  _239
REMARK  100  A    between atoms: _239  and  _240
REMARK  101  A    between atoms: _240  and  _241
REMARK  102  A    between atoms: _245  and  _247
REMARK  103  A    between atoms: _247  and  _248
REMARK  104  A    between atoms: _247  and  _250
REMARK  105  A    between atoms: _250  and  _251
REMARK  106  A    between atoms: _257  and  _259
REMARK  107  A    between atoms: _259  and  _260
REMARK  108  A    between atoms: _259  and  _262
REMARK  109  A    between atoms: _262  and  _263
REMARK  110  A    between atoms: _269  and  _271
REMARK  111  A    between atoms: _271  and  _272
REMARK  112  A    between atoms: _271  and  _274
REMARK  113  A    between atoms: _274  and  _275
REMARK  114  A    between atoms: _278  and  _280
REMARK  115  A    between atoms: _280  and  _281
REMARK  116  A    between atoms: _280  and  _283
REMARK  117  A    between atoms: _283  and  _284
REMARK  118  A    between atoms: _286  and  _288
REMARK  119  A    between atoms: _288  and  _289
REMARK  120  A    between atoms: _288  and  _291
REMARK  121  A    between atoms: _291  and  _292
REMARK  122  A    between atoms: _302  and  _304
REMARK  123  A    between atoms: _304  and  _305
REMARK  124  A    between atoms: _307  and  _309
REMARK  125  A    between atoms: _309  and  _310
REMARK  126  A    between atoms: _309  and  _312
REMARK  127  A    between atoms: _312  and  _313
REMARK  128  A    between atoms: _316  and  _318
REMARK  129  A    between atoms: _318  and  _319
REMARK  130  A    between atoms: _318  and  _321
REMARK  131  A    between atoms: _321  and  _322
REMARK  132  A    between atoms: _325  and  _327
REMARK  133  A    between atoms: _327  and  _328
REMARK  134  A    between atoms: _327  and  _330
REMARK  135  A    between atoms: _330  and  _331
REMARK  136  A    between atoms: _334  and  _336
REMARK  137  A    between atoms: _336  and  _337
REMARK  138  A    between atoms: _340  and  _342
REMARK  139  A    between atoms: _342  and  _343
REMARK  140  A    between atoms: _342  and  _345
REMARK  141  A    between atoms: _345  and  _346
REMARK  142  A    between atoms: _351  and  _352
REMARK  143  A    between atoms: _354  and  _356
REMARK  144  A    between atoms: _356  and  _357
REMARK  145  A    between atoms: _360  and  _362
REMARK  146  A    between atoms: _362  and  _363
REMARK  147  A    between atoms: _362  and  _365
REMARK  148  A    between atoms: _365  and  _366
REMARK  149  A    between atoms: _366  and  _367
REMARK  150  A    between atoms: _370  and  _372
REMARK  151  A    between atoms: _372  and  _373
REMARK  152  A    between atoms: _372  and  _375
REMARK  153  A    between atoms: _375  and  _376
REMARK  154  A    between atoms: _379  and  _381
REMARK  155  A    between atoms: _381  and  _382
REMARK  156  A    between atoms: _385  and  _387
REMARK  157  A    between atoms: _387  and  _388
REMARK  158  A    between atoms: _387  and  _390
REMARK  159  A    between atoms: _390  and  _391
REMARK  160  A    between atoms: _391  and  _392
REMARK  161  A    between atoms: _392  and  _393
REMARK  162  A    between atoms: _403  and  _404
REMARK  163  A    between atoms: _409  and  _411
REMARK  164  A    between atoms: _411  and  _412
REMARK  165  A    between atoms: _411  and  _414
REMARK  166  A    between atoms: _414  and  _415
REMARK  167  A    between atoms: _418  and  _420
REMARK  168  A    between atoms: _420  and  _421
REMARK  169  A    between atoms: _420  and  _423
REMARK  170  A    between atoms: _423  and  _424
REMARK  171  A    between atoms: _427  and  _429
REMARK  172  A    between atoms: _429  and  _430
REMARK  173  A    between atoms: _429  and  _432
REMARK  174  A    between atoms: _432  and  _433
REMARK  175  A    between atoms: _433  and  _434
REMARK  176  A    between atoms: _434  and  _435
REMARK  177  A    between atoms: _444  and  _446
REMARK  178  A    between atoms: _446  and  _447
REMARK  179  A    between atoms: _446  and  _449
REMARK  180  A    between atoms: _449  and  _450
REMARK  181  A    between atoms: _460  and  _462
REMARK  182  A    between atoms: _462  and  _463
REMARK  183  A    between atoms: _462  and  _465
REMARK  184  A    between atoms: _465  and  _466
REMARK  185  A    between atoms: _471  and  _472
REMARK  186  A    between atoms: _474  and  _476
REMARK  187  A    between atoms: _476  and  _477
REMARK  188  A    between atoms: _476  and  _479
REMARK  189  A    between atoms: _479  and  _480
REMARK  190  A    between atoms: _480  and  _481
REMARK  191  A    between atoms: _481  and  _482
REMARK  192  A    between atoms: _482  and  _483
REMARK  193  A    between atoms: _487  and  _489
REMARK  194  A    between atoms: _489  and  _490
REMARK  195  A    between atoms: _489  and  _492
REMARK  196  A    between atoms: _492  and  _493
REMARK  197  A    between atoms: _496  and  _498
REMARK  198  A    between atoms: _498  and  _499
REMARK  199  A    between atoms: _498  and  _501
REMARK  200  A    between atoms: _504  and  _506
REMARK  201  A    between atoms: _506  and  _507
REMARK  202  A    between atoms: _506  and  _509
REMARK  203  A    between atoms: _509  and  _510
REMARK  204  A    between atoms: _513  and  _515
REMARK  205  A    between atoms: _515  and  _516
REMARK  206  A    between atoms: _515  and  _518
REMARK  207  A    between atoms: _518  and  _519
REMARK  208  A    between atoms: _521  and  _523
REMARK  209  A    between atoms: _523  and  _524
REMARK  210  A    between atoms: _526  and  _528
REMARK  211  A    between atoms: _528  and  _529
REMARK  212  A    between atoms: _528  and  _531
REMARK  213  A    between atoms: _531  and  _532
REMARK  214  A    between atoms: _535  and  _537
REMARK  215  A    between atoms: _537  and  _538
REMARK  216  A    between atoms: _537  and  _540
REMARK  217  A    between atoms: _540  and  _541
REMARK  218  A    between atoms: _544  and  _546
REMARK  219  A    between atoms: _546  and  _547
REMARK  220  A    between atoms: _546  and  _549
REMARK  221  A    between atoms: _549  and  _550
REMARK  222  A    between atoms: _555  and  _557
REMARK  223  A    between atoms: _557  and  _558
REMARK  224  A    between atoms: _557  and  _560
REMARK  225  A    between atoms: _560  and  _561
REMARK  226  A    between atoms: _564  and  _566
REMARK  227  A    between atoms: _566  and  _567
REMARK  228  A    between atoms: _566  and  _569
REMARK  229  A    between atoms: _569  and  _570
REMARK  230  A    between atoms: _570  and  _571
REMARK  231  A    between atoms: _571  and  _572
REMARK  232  A    between atoms: _581  and  _583
REMARK  233  A    between atoms: _583  and  _584
REMARK  234  A    between atoms: _586  and  _588
REMARK  235  A    between atoms: _588  and  _589
REMARK  236  A    between atoms: _588  and  _591
REMARK  237  A    between atoms: _591  and  _592
REMARK  238  A    between atoms: _592  and  _593
REMARK  239  A    between atoms: _596  and  _598
REMARK  240  A    between atoms: _598  and  _599
REMARK  241  A    between atoms: _598  and  _601
REMARK  242  A    between atoms: _601  and  _602
REMARK  243  A    between atoms: _602  and  _603
REMARK  244  A    between atoms: _603  and  _604
REMARK  245  A    between atoms: _614  and  _615
REMARK  246  A    between atoms: _620  and  _622
REMARK  247  A    between atoms: _622  and  _623
REMARK  248  A    between atoms: _622  and  _625
REMARK  249  A    between atoms: _628  and  _630
REMARK  250  A    between atoms: _630  and  _631
REMARK  251  A    between atoms: _630  and  _633
REMARK  252  A    between atoms: _633  and  _634
REMARK  253  A    between atoms: _634  and  _635
REMARK  254  A    between atoms: _638  and  _640
REMARK  255  A    between atoms: _640  and  _641
REMARK  256  A    between atoms: _640  and  _643
REMARK  257  A    between atoms: _643  and  _644
REMARK  258  A    between atoms: _644  and  _645
REMARK  259  A    between atoms: _645  and  _646
REMARK  260  A    between atoms: _646  and  _647
REMARK  261  A    between atoms: _651  and  _653
REMARK  262  A    between atoms: _653  and  _654
REMARK  263  A    between atoms: _657  and  _659
REMARK  264  A    between atoms: _659  and  _660
REMARK  265  A    between atoms: _659  and  _662
REMARK  266  A    between atoms: _662  and  _663
REMARK  267  A    between atoms: _665  and  _667
REMARK  268  A    between atoms: _667  and  _668
REMARK  269  A    between atoms: _667  and  _670
REMARK  270  A    between atoms: _670  and  _671
REMARK  271  A    between atoms: _671  and  _672
REMARK  272  A    between atoms: _677  and  _679
REMARK  273  A    between atoms: _679  and  _680
REMARK  274  A    between atoms: _679  and  _682
REMARK  275  A    between atoms: _682  and  _683
REMARK  276  A    between atoms: _685  and  _687
REMARK  277  A    between atoms: _687  and  _688
REMARK  278  A    between atoms: _687  and  _690
REMARK  279  A    between atoms: _690  and  _691
REMARK  280  A    between atoms: _694  and  _696
REMARK  281  A    between atoms: _696  and  _697
REMARK  282  A    between atoms: _696  and  _699
REMARK  283  A    between atoms: _699  and  _700
REMARK  284  A    between atoms: _703  and  _705
REMARK  285  A    between atoms: _705  and  _706
REMARK  286  A    between atoms: _705  and  _708
REMARK  287  A    between atoms: _711  and  _713
REMARK  288  A    between atoms: _713  and  _714
REMARK  289  A    between atoms: _716  and  _718
REMARK  290  A    between atoms: _718  and  _719
REMARK  291  A    between atoms: _722  and  _724
REMARK  292  A    between atoms: _724  and  _725
REMARK  293  A    between atoms: _724  and  _727
REMARK                            x       y       z     vdW  Elec       q    Type
REMARK                         _______ _______ _______ _____ _____    ______ ____
ROOT
ATOM      1  O   HOH     1      33.595  28.931  20.992  0.00  0.00    +0.000 OA
ENDROOT
TORSDOF 0
REMARK  Name = ../refined-set-2016/1m4h/1m4h_pocket.pdb
REMARK  293 active torsions:
REMARK  status: ('A' for Active; 'I' for Inactive)
REMARK    1  A    between atoms: _1  and  _3
REMARK    2  A    between atoms: _3  and  _4
REMARK    3  A    between atoms: _3  and  _6
REMARK    4  A    between atoms: _6  and  _7
REMARK    5  A    between atoms: _7  and  _8
REMARK    6  A    between atoms: _8  and  _9
REMARK    7  A    between atoms: _9  and  _10
REMARK    8  A    between atoms: _14  and  _16
REMARK    9  A    between atoms: _16  and  _17
REMARK   10  A    between atoms: _16  and  _19
REMARK   11  A    between atoms: _19  and  _20
REMARK   12  A    between atoms: _22  and  _24
REMARK   13  A    between atoms: _24  and  _25
REMARK   14  A    between atoms: _27  and  _29
REMARK   15  A    between atoms: _29  and  _30
REMARK   16  A    between atoms: _29  and  _32
REMARK   17  A    between atoms: _32  and  _33
REMARK   18  A    between atoms: _33  and  _34
REMARK   19  A    between atoms: _39  and  _41
REMARK   20  A    between atoms: _41  and  _42
REMARK   21  A    between atoms: _44  and  _46
REMARK   22  A    between atoms: _46  and  _47
REMARK   23  A    between atoms: _46  and  _49
REMARK   24  A    between atoms: _49  and  _50
REMARK   25  A    between atoms: _55  and  _56
REMARK   26  A    between atoms: _58  and  _60
REMARK   27  A    between atoms: _60  and  _61
REMARK   28  A    between atoms: _60  and  _63
REMARK   29  A    between atoms: _63  and  _64
REMARK   30  A    between atoms: _67  and  _69
REMARK   31  A    between atoms: _69  and  _70
REMARK   32  A    between atoms: _69  and  _72
REMARK   33  A    between atoms: _75  and  _77
REMARK   34  A    between atoms: _77  and  _78
REMARK   35  A    between atoms: _77  and  _80
REMARK   36  A    between atoms: _80  and  _81
REMARK   37  A    between atoms: _84  and  _86
REMARK   38  A    between atoms: _86  and  _87
REMARK   39  A    between atoms: _86  and  _89
REMARK   40  A    between atoms: _89  and  _90
REMARK   41  A    between atoms: _93  and  _95
REMARK   42  A    between atoms: _95  and  _96
REMARK   43  A    between atoms: _98  and  _100
REMARK   44  A    between atoms: _100  and  _101
REMARK   45  A    between atoms: _100  and  _103
REMARK   46  A    between atoms: _103  and  _104
REMARK   47  A    between atoms: _106  and  _108
REMARK   48  A    between atoms: _108  and  _109
REMARK   49  A    between atoms: _108  and  _111
REMARK   50  A    between atoms: _111  and  _112
REMARK   51  A    between atoms: _114  and  _116
REMARK   52  A    between atoms: _116  and  _117
REMARK   53  A    between atoms: _116  and  _119
REMARK   54  A    between atoms: _119  and  _120
REMARK   55  A    between atoms: _125  and  _127
REMARK   56  A    between atoms: _127  and  _128
REMARK   57  A    between atoms: _127  and  _130
REMARK   58  A    between atoms: _130  and  _131
REMARK   59  A    between atoms: _136  and  _137
REMARK   60  A    between atoms: _139  and  _141
REMARK   61  A    between atoms: _141  and  _142
REMARK   62  A    between atoms: _141  and  _144
REMARK   63  A    between atoms: _148  and  _149
REMARK   64  A    between atoms: _154  and  _156
REMARK   65  A    between atoms: _156  and  _157
REMARK   66  A    between atoms: _156  and  _159
REMARK   67  A    between atoms: _159  and  _160
REMARK   68  A    between atoms: _165  and  _166
REMARK   69  A    between atoms: _168  and  _170
REMARK   70  A    between atoms: _170  and  _171
REMARK   71  A    between atoms: _170  and  _173
REMARK   72  A    between atoms: _173  and  _174
REMARK   73  A    between atoms: _177  and  _179
REMARK   74  A    between atoms: _179  and  _180
REMARK   75  A    between atoms: _179  and  _182
REMARK   76  A    between atoms: _182  and  _183
REMARK   77  A    between atoms: _183  and  _184
REMARK   78  A    between atoms: _189  and  _191
REMARK   79  A    between atoms: _191  and  _192
REMARK   80  A    between atoms: _194  and  _196
REMARK   81  A    between atoms: _196  and  _197
REMARK   82  A    between atoms: _196  and  _199
REMARK   83  A    between atoms: _199  and  _200
REMARK   84  A    between atoms: _200  and  _201
REMARK   85  A    between atoms: _201  and  _202
REMARK   86  A    between atoms: _202  and  _203
REMARK   87  A    between atoms: _207  and  _209
REMARK   88  A    between atoms: _209  and  _210
REMARK   89  A    between atoms: _209  and  _212
REMARK   90  A    between atoms: _212  and  _213
REMARK   91  A    between atoms: _223  and  _225
REMARK   92  A    between atoms: _225  and  _226
REMARK   93  A    between atoms: _225  and  _228
REMARK   94  A    between atoms: _228  and  _229
REMARK   95  A    between atoms: _232  and  _234
REMARK   96  A    between atoms: _234  and  _235
REMARK   97  A    between atoms: _234  and  _237
REMARK   98  A    between atoms: _237  and  _238
REMARK   99  A    between atoms: _238  and  _239
REMARK  100  A    between atoms: _239  and  _240
REMARK  101  A    between atoms: _240  and  _241
REMARK  102  A    between atoms: _245  and  _247
REMARK  103  A    between atoms: _247  and  _248
REMARK  104  A    between atoms: _247  and  _250
REMARK  105  A    between atoms: _250  and  _251
REMARK  106  A    between atoms: _257  and  _259
REMARK  107  A    between atoms: _259  and  _260
REMARK  108  A    between atoms: _259  and  _262
REMARK  109  A    between atoms: _262  and  _263
REMARK  110  A    between atoms: _269  and  _271
REMARK  111  A    between atoms: _271  and  _272
REMARK  112  A    between atoms: _271  and  _274
REMARK  113  A    between atoms: _274  and  _275
REMARK  114  A    between atoms: _278  and  _280
REMARK  115  A    between atoms: _280  and  _281
REMARK  116  A    between atoms: _280  and  _283
REMARK  117  A    between atoms: _283  and  _284
REMARK  118  A    between atoms: _286  and  _288
REMARK  119  A    between atoms: _288  and  _289
REMARK  120  A    between atoms: _288  and  _291
REMARK  121  A    between atoms: _291  and  _292
REMARK  122  A    between atoms: _302  and  _304
REMARK  123  A    between atoms: _304  and  _305
REMARK  124  A    between atoms: _307  and  _309
REMARK  125  A    between atoms: _309  and  _310
REMARK  126  A    between atoms: _309  and  _312
REMARK  127  A    between atoms: _312  and  _313
REMARK  128  A    between atoms: _316  and  _318
REMARK  129  A    between atoms: _318  and  _319
REMARK  130  A    between atoms: _318  and  _321
REMARK  131  A    between atoms: _321  and  _322
REMARK  132  A    between atoms: _325  and  _327
REMARK  133  A    between atoms: _327  and  _328
REMARK  134  A    between atoms: _327  and  _330
REMARK  135  A    between atoms: _330  and  _331
REMARK  136  A    between atoms: _334  and  _336
REMARK  137  A    between atoms: _336  and  _337
REMARK  138  A    between atoms: _340  and  _342
REMARK  139  A    between atoms: _342  and  _343
REMARK  140  A    between atoms: _342  and  _345
REMARK  141  A    between atoms: _345  and  _346
REMARK  142  A    between atoms: _351  and  _352
REMARK  143  A    between atoms: _354  and  _356
REMARK  144  A    between atoms: _356  and  _357
REMARK  145  A    between atoms: _360  and  _362
REMARK  146  A    between atoms: _362  and  _363
REMARK  147  A    between atoms: _362  and  _365
REMARK  148  A    between atoms: _365  and  _366
REMARK  149  A    between atoms: _366  and  _367
REMARK  150  A    between atoms: _370  and  _372
REMARK  151  A    between atoms: _372  and  _373
REMARK  152  A    between atoms: _372  and  _375
REMARK  153  A    between atoms: _375  and  _376
REMARK  154  A    between atoms: _379  and  _381
REMARK  155  A    between atoms: _381  and  _382
REMARK  156  A    between atoms: _385  and  _387
REMARK  157  A    between atoms: _387  and  _388
REMARK  158  A    between atoms: _387  and  _390
REMARK  159  A    between atoms: _390  and  _391
REMARK  160  A    between atoms: _391  and  _392
REMARK  161  A    between atoms: _392  and  _393
REMARK  162  A    between atoms: _403  and  _404
REMARK  163  A    between atoms: _409  and  _411
REMARK  164  A    between atoms: _411  and  _412
REMARK  165  A    between atoms: _411  and  _414
REMARK  166  A    between atoms: _414  and  _415
REMARK  167  A    between atoms: _418  and  _420
REMARK  168  A    between atoms: _420  and  _421
REMARK  169  A    between atoms: _420  and  _423
REMARK  170  A    between atoms: _423  and  _424
REMARK  171  A    between atoms: _427  and  _429
REMARK  172  A    between atoms: _429  and  _430
REMARK  173  A    between atoms: _429  and  _432
REMARK  174  A    between atoms: _432  and  _433
REMARK  175  A    between atoms: _433  and  _434
REMARK  176  A    between atoms: _434  and  _435
REMARK  177  A    between atoms: _444  and  _446
REMARK  178  A    between atoms: _446  and  _447
REMARK  179  A    between atoms: _446  and  _449
REMARK  180  A    between atoms: _449  and  _450
REMARK  181  A    between atoms: _460  and  _462
REMARK  182  A    between atoms: _462  and  _463
REMARK  183  A    between atoms: _462  and  _465
REMARK  184  A    between atoms: _465  and  _466
REMARK  185  A    between atoms: _471  and  _472
REMARK  186  A    between atoms: _474  and  _476
REMARK  187  A    between atoms: _476  and  _477
REMARK  188  A    between atoms: _476  and  _479
REMARK  189  A    between atoms: _479  and  _480
REMARK  190  A    between atoms: _480  and  _481
REMARK  191  A    between atoms: _481  and  _482
REMARK  192  A    between atoms: _482  and  _483
REMARK  193  A    between atoms: _487  and  _489
REMARK  194  A    between atoms: _489  and  _490
REMARK  195  A    between atoms: _489  and  _492
REMARK  196  A    between atoms: _492  and  _493
REMARK  197  A    between atoms: _496  and  _498
REMARK  198  A    between atoms: _498  and  _499
REMARK  199  A    between atoms: _498  and  _501
REMARK  200  A    between atoms: _504  and  _506
REMARK  201  A    between atoms: _506  and  _507
REMARK  202  A    between atoms: _506  and  _509
REMARK  203  A    between atoms: _509  and  _510
REMARK  204  A    between atoms: _513  and  _515
REMARK  205  A    between atoms: _515  and  _516
REMARK  206  A    between atoms: _515  and  _518
REMARK  207  A    between atoms: _518  and  _519
REMARK  208  A    between atoms: _521  and  _523
REMARK  209  A    between atoms: _523  and  _524
REMARK  210  A    between atoms: _526  and  _528
REMARK  211  A    between atoms: _528  and  _529
REMARK  212  A    between atoms: _528  and  _531
REMARK  213  A    between atoms: _531  and  _532
REMARK  214  A    between atoms: _535  and  _537
REMARK  215  A    between atoms: _537  and  _538
REMARK  216  A    between atoms: _537  and  _540
REMARK  217  A    between atoms: _540  and  _541
REMARK  218  A    between atoms: _544  and  _546
REMARK  219  A    between atoms: _546  and  _547
REMARK  220  A    between atoms: _546  and  _549
REMARK  221  A    between atoms: _549  and  _550
REMARK  222  A    between atoms: _555  and  _557
REMARK  223  A    between atoms: _557  and  _558
REMARK  224  A    between atoms: _557  and  _560
REMARK  225  A    between atoms: _560  and  _561
REMARK  226  A    between atoms: _564  and  _566
REMARK  227  A    between atoms: _566  and  _567
REMARK  228  A    between atoms: _566  and  _569
REMARK  229  A    between atoms: _569  and  _570
REMARK  230  A    between atoms: _570  and  _571
REMARK  231  A    between atoms: _571  and  _572
REMARK  232  A    between atoms: _581  and  _583
REMARK  233  A    between atoms: _583  and  _584
REMARK  234  A    between atoms: _586  and  _588
REMARK  235  A    between atoms: _588  and  _589
REMARK  236  A    between atoms: _588  and  _591
REMARK  237  A    between atoms: _591  and  _592
REMARK  238  A    between atoms: _592  and  _593
REMARK  239  A    between atoms: _596  and  _598
REMARK  240  A    between atoms: _598  and  _599
REMARK  241  A    between atoms: _598  and  _601
REMARK  242  A    between atoms: _601  and  _602
REMARK  243  A    between atoms: _602  and  _603
REMARK  244  A    between atoms: _603  and  _604
REMARK  245  A    between atoms: _614  and  _615
REMARK  246  A    between atoms: _620  and  _622
REMARK  247  A    between atoms: _622  and  _623
REMARK  248  A    between atoms: _622  and  _625
REMARK  249  A    between atoms: _628  and  _630
REMARK  250  A    between atoms: _630  and  _631
REMARK  251  A    between atoms: _630  and  _633
REMARK  252  A    between atoms: _633  and  _634
REMARK  253  A    between atoms: _634  and  _635
REMARK  254  A    between atoms: _638  and  _640
REMARK  255  A    between atoms: _640  and  _641
REMARK  256  A    between atoms: _640  and  _643
REMARK  257  A    between atoms: _643  and  _644
REMARK  258  A    between atoms: _644  and  _645
REMARK  259  A    between atoms: _645  and  _646
REMARK  260  A    between atoms: _646  and  _647
REMARK  261  A    between atoms: _651  and  _653
REMARK  262  A    between atoms: _653  and  _654
REMARK  263  A    between atoms: _657  and  _659
REMARK  264  A    between atoms: _659  and  _660
REMARK  265  A    between atoms: _659  and  _662
REMARK  266  A    between atoms: _662  and  _663
REMARK  267  A    between atoms: _665  and  _667
REMARK  268  A    between atoms: _667  and  _668
REMARK  269  A    between atoms: _667  and  _670
REMARK  270  A    between atoms: _670  and  _671
REMARK  271  A    between atoms: _671  and  _672
REMARK  272  A    between atoms: _677  and  _679
REMARK  273  A    between atoms: _679  and  _680
REMARK  274  A    between atoms: _679  and  _682
REMARK  275  A    between atoms: _682  and  _683
REMARK  276  A    between atoms: _685  and  _687
REMARK  277  A    between atoms: _687  and  _688
REMARK  278  A    between atoms: _687  and  _690
REMARK  279  A    between atoms: _690  and  _691
REMARK  280  A    between atoms: _694  and  _696
REMARK  281  A    between atoms: _696  and  _697
REMARK  282  A    between atoms: _696  and  _699
REMARK  283  A    between atoms: _699  and  _700
REMARK  284  A    between atoms: _703  and  _705
REMARK  285  A    between atoms: _705  and  _706
REMARK  286  A    between atoms: _705  and  _708
REMARK  287  A    between atoms: _711  and  _713
REMARK  288  A    between atoms: _713  and  _714
REMARK  289  A    between atoms: _716  and  _718
REMARK  290  A    between atoms: _718  and  _719
REMARK  291  A    between atoms: _722  and  _724
REMARK  292  A    between atoms: _724  and  _725
REMARK  293  A    between atoms: _724  and  _727
REMARK                            x       y       z     vdW  Elec       q    Type
REMARK                         _______ _______ _______ _____ _____    ______ ____
ROOT
ATOM      1  O   HOH     1      35.102  37.402  24.818  0.00  0.00    +0.000 OA
ENDROOT
TORSDOF 0
REMARK  Name = ../refined-set-2016/1m4h/1m4h_pocket.pdb
REMARK  293 active torsions:
REMARK  status: ('A' for Active; 'I' for Inactive)
REMARK    1  A    between atoms: _1  and  _3
REMARK    2  A    between atoms: _3  and  _4
REMARK    3  A    between atoms: _3  and  _6
REMARK    4  A    between atoms: _6  and  _7
REMARK    5  A    between atoms: _7  and  _8
REMARK    6  A    between atoms: _8  and  _9
REMARK    7  A    between atoms: _9  and  _10
REMARK    8  A    between atoms: _14  and  _16
REMARK    9  A    between atoms: _16  and  _17
REMARK   10  A    between atoms: _16  and  _19
REMARK   11  A    between atoms: _19  and  _20
REMARK   12  A    between atoms: _22  and  _24
REMARK   13  A    between atoms: _24  and  _25
REMARK   14  A    between atoms: _27  and  _29
REMARK   15  A    between atoms: _29  and  _30
REMARK   16  A    between atoms: _29  and  _32
REMARK   17  A    between atoms: _32  and  _33
REMARK   18  A    between atoms: _33  and  _34
REMARK   19  A    between atoms: _39  and  _41
REMARK   20  A    between atoms: _41  and  _42
REMARK   21  A    between atoms: _44  and  _46
REMARK   22  A    between atoms: _46  and  _47
REMARK   23  A    between atoms: _46  and  _49
REMARK   24  A    between atoms: _49  and  _50
REMARK   25  A    between atoms: _55  and  _56
REMARK   26  A    between atoms: _58  and  _60
REMARK   27  A    between atoms: _60  and  _61
REMARK   28  A    between atoms: _60  and  _63
REMARK   29  A    between atoms: _63  and  _64
REMARK   30  A    between atoms: _67  and  _69
REMARK   31  A    between atoms: _69  and  _70
REMARK   32  A    between atoms: _69  and  _72
REMARK   33  A    between atoms: _75  and  _77
REMARK   34  A    between atoms: _77  and  _78
REMARK   35  A    between atoms: _77  and  _80
REMARK   36  A    between atoms: _80  and  _81
REMARK   37  A    between atoms: _84  and  _86
REMARK   38  A    between atoms: _86  and  _87
REMARK   39  A    between atoms: _86  and  _89
REMARK   40  A    between atoms: _89  and  _90
REMARK   41  A    between atoms: _93  and  _95
REMARK   42  A    between atoms: _95  and  _96
REMARK   43  A    between atoms: _98  and  _100
REMARK   44  A    between atoms: _100  and  _101
REMARK   45  A    between atoms: _100  and  _103
REMARK   46  A    between atoms: _103  and  _104
REMARK   47  A    between atoms: _106  and  _108
REMARK   48  A    between atoms: _108  and  _109
REMARK   49  A    between atoms: _108  and  _111
REMARK   50  A    between atoms: _111  and  _112
REMARK   51  A    between atoms: _114  and  _116
REMARK   52  A    between atoms: _116  and  _117
REMARK   53  A    between atoms: _116  and  _119
REMARK   54  A    between atoms: _119  and  _120
REMARK   55  A    between atoms: _125  and  _127
REMARK   56  A    between atoms: _127  and  _128
REMARK   57  A    between atoms: _127  and  _130
REMARK   58  A    between atoms: _130  and  _131
REMARK   59  A    between atoms: _136  and  _137
REMARK   60  A    between atoms: _139  and  _141
REMARK   61  A    between atoms: _141  and  _142
REMARK   62  A    between atoms: _141  and  _144
REMARK   63  A    between atoms: _148  and  _149
REMARK   64  A    between atoms: _154  and  _156
REMARK   65  A    between atoms: _156  and  _157
REMARK   66  A    between atoms: _156  and  _159
REMARK   67  A    between atoms: _159  and  _160
REMARK   68  A    between atoms: _165  and  _166
REMARK   69  A    between atoms: _168  and  _170
REMARK   70  A    between atoms: _170  and  _171
REMARK   71  A    between atoms: _170  and  _173
REMARK   72  A    between atoms: _173  and  _174
REMARK   73  A    between atoms: _177  and  _179
REMARK   74  A    between atoms: _179  and  _180
REMARK   75  A    between atoms: _179  and  _182
REMARK   76  A    between atoms: _182  and  _183
REMARK   77  A    between atoms: _183  and  _184
REMARK   78  A    between atoms: _189  and  _191
REMARK   79  A    between atoms: _191  and  _192
REMARK   80  A    between atoms: _194  and  _196
REMARK   81  A    between atoms: _196  and  _197
REMARK   82  A    between atoms: _196  and  _199
REMARK   83  A    between atoms: _199  and  _200
REMARK   84  A    between atoms: _200  and  _201
REMARK   85  A    between atoms: _201  and  _202
REMARK   86  A    between atoms: _202  and  _203
REMARK   87  A    between atoms: _207  and  _209
REMARK   88  A    between atoms: _209  and  _210
REMARK   89  A    between atoms: _209  and  _212
REMARK   90  A    between atoms: _212  and  _213
REMARK   91  A    between atoms: _223  and  _225
REMARK   92  A    between atoms: _225  and  _226
REMARK   93  A    between atoms: _225  and  _228
REMARK   94  A    between atoms: _228  and  _229
REMARK   95  A    between atoms: _232  and  _234
REMARK   96  A    between atoms: _234  and  _235
REMARK   97  A    between atoms: _234  and  _237
REMARK   98  A    between atoms: _237  and  _238
REMARK   99  A    between atoms: _238  and  _239
REMARK  100  A    between atoms: _239  and  _240
REMARK  101  A    between atoms: _240  and  _241
REMARK  102  A    between atoms: _245  and  _247
REMARK  103  A    between atoms: _247  and  _248
REMARK  104  A    between atoms: _247  and  _250
REMARK  105  A    between atoms: _250  and  _251
REMARK  106  A    between atoms: _257  and  _259
REMARK  107  A    between atoms: _259  and  _260
REMARK  108  A    between atoms: _259  and  _262
REMARK  109  A    between atoms: _262  and  _263
REMARK  110  A    between atoms: _269  and  _271
REMARK  111  A    between atoms: _271  and  _272
REMARK  112  A    between atoms: _271  and  _274
REMARK  113  A    between atoms: _274  and  _275
REMARK  114  A    between atoms: _278  and  _280
REMARK  115  A    between atoms: _280  and  _281
REMARK  116  A    between atoms: _280  and  _283
REMARK  117  A    between atoms: _283  and  _284
REMARK  118  A    between atoms: _286  and  _288
REMARK  119  A    between atoms: _288  and  _289
REMARK  120  A    between atoms: _288  and  _291
REMARK  121  A    between atoms: _291  and  _292
REMARK  122  A    between atoms: _302  and  _304
REMARK  123  A    between atoms: _304  and  _305
REMARK  124  A    between atoms: _307  and  _309
REMARK  125  A    between atoms: _309  and  _310
REMARK  126  A    between atoms: _309  and  _312
REMARK  127  A    between atoms: _312  and  _313
REMARK  128  A    between atoms: _316  and  _318
REMARK  129  A    between atoms: _318  and  _319
REMARK  130  A    between atoms: _318  and  _321
REMARK  131  A    between atoms: _321  and  _322
REMARK  132  A    between atoms: _325  and  _327
REMARK  133  A    between atoms: _327  and  _328
REMARK  134  A    between atoms: _327  and  _330
REMARK  135  A    between atoms: _330  and  _331
REMARK  136  A    between atoms: _334  and  _336
REMARK  137  A    between atoms: _336  and  _337
REMARK  138  A    between atoms: _340  and  _342
REMARK  139  A    between atoms: _342  and  _343
REMARK  140  A    between atoms: _342  and  _345
REMARK  141  A    between atoms: _345  and  _346
REMARK  142  A    between atoms: _351  and  _352
REMARK  143  A    between atoms: _354  and  _356
REMARK  144  A    between atoms: _356  and  _357
REMARK  145  A    between atoms: _360  and  _362
REMARK  146  A    between atoms: _362  and  _363
REMARK  147  A    between atoms: _362  and  _365
REMARK  148  A    between atoms: _365  and  _366
REMARK  149  A    between atoms: _366  and  _367
REMARK  150  A    between atoms: _370  and  _372
REMARK  151  A    between atoms: _372  and  _373
REMARK  152  A    between atoms: _372  and  _375
REMARK  153  A    between atoms: _375  and  _376
REMARK  154  A    between atoms: _379  and  _381
REMARK  155  A    between atoms: _381  and  _382
REMARK  156  A    between atoms: _385  and  _387
REMARK  157  A    between atoms: _387  and  _388
REMARK  158  A    between atoms: _387  and  _390
REMARK  159  A    between atoms: _390  and  _391
REMARK  160  A    between atoms: _391  and  _392
REMARK  161  A    between atoms: _392  and  _393
REMARK  162  A    between atoms: _403  and  _404
REMARK  163  A    between atoms: _409  and  _411
REMARK  164  A    between atoms: _411  and  _412
REMARK  165  A    between atoms: _411  and  _414
REMARK  166  A    between atoms: _414  and  _415
REMARK  167  A    between atoms: _418  and  _420
REMARK  168  A    between atoms: _420  and  _421
REMARK  169  A    between atoms: _420  and  _423
REMARK  170  A    between atoms: _423  and  _424
REMARK  171  A    between atoms: _427  and  _429
REMARK  172  A    between atoms: _429  and  _430
REMARK  173  A    between atoms: _429  and  _432
REMARK  174  A    between atoms: _432  and  _433
REMARK  175  A    between atoms: _433  and  _434
REMARK  176  A    between atoms: _434  and  _435
REMARK  177  A    between atoms: _444  and  _446
REMARK  178  A    between atoms: _446  and  _447
REMARK  179  A    between atoms: _446  and  _449
REMARK  180  A    between atoms: _449  and  _450
REMARK  181  A    between atoms: _460  and  _462
REMARK  182  A    between atoms: _462  and  _463
REMARK  183  A    between atoms: _462  and  _465
REMARK  184  A    between atoms: _465  and  _466
REMARK  185  A    between atoms: _471  and  _472
REMARK  186  A    between atoms: _474  and  _476
REMARK  187  A    between atoms: _476  and  _477
REMARK  188  A    between atoms: _476  and  _479
REMARK  189  A    between atoms: _479  and  _480
REMARK  190  A    between atoms: _480  and  _481
REMARK  191  A    between atoms: _481  and  _482
REMARK  192  A    between atoms: _482  and  _483
REMARK  193  A    between atoms: _487  and  _489
REMARK  194  A    between atoms: _489  and  _490
REMARK  195  A    between atoms: _489  and  _492
REMARK  196  A    between atoms: _492  and  _493
REMARK  197  A    between atoms: _496  and  _498
REMARK  198  A    between atoms: _498  and  _499
REMARK  199  A    between atoms: _498  and  _501
REMARK  200  A    between atoms: _504  and  _506
REMARK  201  A    between atoms: _506  and  _507
REMARK  202  A    between atoms: _506  and  _509
REMARK  203  A    between atoms: _509  and  _510
REMARK  204  A    between atoms: _513  and  _515
REMARK  205  A    between atoms: _515  and  _516
REMARK  206  A    between atoms: _515  and  _518
REMARK  207  A    between atoms: _518  and  _519
REMARK  208  A    between atoms: _521  and  _523
REMARK  209  A    between atoms: _523  and  _524
REMARK  210  A    between atoms: _526  and  _528
REMARK  211  A    between atoms: _528  and  _529
REMARK  212  A    between atoms: _528  and  _531
REMARK  213  A    between atoms: _531  and  _532
REMARK  214  A    between atoms: _535  and  _537
REMARK  215  A    between atoms: _537  and  _538
REMARK  216  A    between atoms: _537  and  _540
REMARK  217  A    between atoms: _540  and  _541
REMARK  218  A    between atoms: _544  and  _546
REMARK  219  A    between atoms: _546  and  _547
REMARK  220  A    between atoms: _546  and  _549
REMARK  221  A    between atoms: _549  and  _550
REMARK  222  A    between atoms: _555  and  _557
REMARK  223  A    between atoms: _557  and  _558
REMARK  224  A    between atoms: _557  and  _560
REMARK  225  A    between atoms: _560  and  _561
REMARK  226  A    between atoms: _564  and  _566
REMARK  227  A    between atoms: _566  and  _567
REMARK  228  A    between atoms: _566  and  _569
REMARK  229  A    between atoms: _569  and  _570
REMARK  230  A    between atoms: _570  and  _571
REMARK  231  A    between atoms: _571  and  _572
REMARK  232  A    between atoms: _581  and  _583
REMARK  233  A    between atoms: _583  and  _584
REMARK  234  A    between atoms: _586  and  _588
REMARK  235  A    between atoms: _588  and  _589
REMARK  236  A    between atoms: _588  and  _591
REMARK  237  A    between atoms: _591  and  _592
REMARK  238  A    between atoms: _592  and  _593
REMARK  239  A    between atoms: _596  and  _598
REMARK  240  A    between atoms: _598  and  _599
REMARK  241  A    between atoms: _598  and  _601
REMARK  242  A    between atoms: _601  and  _602
REMARK  243  A    between atoms: _602  and  _603
REMARK  244  A    between atoms: _603  and  _604
REMARK  245  A    between atoms: _614  and  _615
REMARK  246  A    between atoms: _620  and  _622
REMARK  247  A    between atoms: _622  and  _623
REMARK  248  A    between atoms: _622  and  _625
REMARK  249  A    between atoms: _628  and  _630
REMARK  250  A    between atoms: _630  and  _631
REMARK  251  A    between atoms: _630  and  _633
REMARK  252  A    between atoms: _633  and  _634
REMARK  253  A    between atoms: _634  and  _635
REMARK  254  A    between atoms: _638  and  _640
REMARK  255  A    between atoms: _640  and  _641
REMARK  256  A    between atoms: _640  and  _643
REMARK  257  A    between atoms: _643  and  _644
REMARK  258  A    between atoms: _644  and  _645
REMARK  259  A    between atoms: _645  and  _646
REMARK  260  A    between atoms: _646  and  _647
REMARK  261  A    between atoms: _651  and  _653
REMARK  262  A    between atoms: _653  and  _654
REMARK  263  A    between atoms: _657  and  _659
REMARK  264  A    between atoms: _659  and  _660
REMARK  265  A    between atoms: _659  and  _662
REMARK  266  A    between atoms: _662  and  _663
REMARK  267  A    between atoms: _665  and  _667
REMARK  268  A    between atoms: _667  and  _668
REMARK  269  A    between atoms: _667  and  _670
REMARK  270  A    between atoms: _670  and  _671
REMARK  271  A    between atoms: _671  and  _672
REMARK  272  A    between atoms: _677  and  _679
REMARK  273  A    between atoms: _679  and  _680
REMARK  274  A    between atoms: _679  and  _682
REMARK  275  A    between atoms: _682  and  _683
REMARK  276  A    between atoms: _685  and  _687
REMARK  277  A    between atoms: _687  and  _688
REMARK  278  A    between atoms: _687  and  _690
REMARK  279  A    between atoms: _690  and  _691
REMARK  280  A    between atoms: _694  and  _696
REMARK  281  A    between atoms: _696  and  _697
REMARK  282  A    between atoms: _696  and  _699
REMARK  283  A    between atoms: _699  and  _700
REMARK  284  A    between atoms: _703  and  _705
REMARK  285  A    between atoms: _705  and  _706
REMARK  286  A    between atoms: _705  and  _708
REMARK  287  A    between atoms: _711  and  _713
REMARK  288  A    between atoms: _713  and  _714
REMARK  289  A    between atoms: _716  and  _718
REMARK  290  A    between atoms: _718  and  _719
REMARK  291  A    between atoms: _722  and  _724
REMARK  292  A    between atoms: _724  and  _725
REMARK  293  A    between atoms: _724  and  _727
REMARK                            x       y       z     vdW  Elec       q    Type
REMARK                         _______ _______ _______ _____ _____    ______ ____
ROOT
ATOM      1  O   HOH     1      13.817  39.680  22.734  0.00  0.00    +0.000 OA
ENDROOT
TORSDOF 0
REMARK  Name = ../refined-set-2016/1m4h/1m4h_pocket.pdb
REMARK  293 active torsions:
REMARK  status: ('A' for Active; 'I' for Inactive)
REMARK    1  A    between atoms: _1  and  _3
REMARK    2  A    between atoms: _3  and  _4
REMARK    3  A    between atoms: _3  and  _6
REMARK    4  A    between atoms: _6  and  _7
REMARK    5  A    between atoms: _7  and  _8
REMARK    6  A    between atoms: _8  and  _9
REMARK    7  A    between atoms: _9  and  _10
REMARK    8  A    between atoms: _14  and  _16
REMARK    9  A    between atoms: _16  and  _17
REMARK   10  A    between atoms: _16  and  _19
REMARK   11  A    between atoms: _19  and  _20
REMARK   12  A    between atoms: _22  and  _24
REMARK   13  A    between atoms: _24  and  _25
REMARK   14  A    between atoms: _27  and  _29
REMARK   15  A    between atoms: _29  and  _30
REMARK   16  A    between atoms: _29  and  _32
REMARK   17  A    between atoms: _32  and  _33
REMARK   18  A    between atoms: _33  and  _34
REMARK   19  A    between atoms: _39  and  _41
REMARK   20  A    between atoms: _41  and  _42
REMARK   21  A    between atoms: _44  and  _46
REMARK   22  A    between atoms: _46  and  _47
REMARK   23  A    between atoms: _46  and  _49
REMARK   24  A    between atoms: _49  and  _50
REMARK   25  A    between atoms: _55  and  _56
REMARK   26  A    between atoms: _58  and  _60
REMARK   27  A    between atoms: _60  and  _61
REMARK   28  A    between atoms: _60  and  _63
REMARK   29  A    between atoms: _63  and  _64
REMARK   30  A    between atoms: _67  and  _69
REMARK   31  A    between atoms: _69  and  _70
REMARK   32  A    between atoms: _69  and  _72
REMARK   33  A    between atoms: _75  and  _77
REMARK   34  A    between atoms: _77  and  _78
REMARK   35  A    between atoms: _77  and  _80
REMARK   36  A    between atoms: _80  and  _81
REMARK   37  A    between atoms: _84  and  _86
REMARK   38  A    between atoms: _86  and  _87
REMARK   39  A    between atoms: _86  and  _89
REMARK   40  A    between atoms: _89  and  _90
REMARK   41  A    between atoms: _93  and  _95
REMARK   42  A    between atoms: _95  and  _96
REMARK   43  A    between atoms: _98  and  _100
REMARK   44  A    between atoms: _100  and  _101
REMARK   45  A    between atoms: _100  and  _103
REMARK   46  A    between atoms: _103  and  _104
REMARK   47  A    between atoms: _106  and  _108
REMARK   48  A    between atoms: _108  and  _109
REMARK   49  A    between atoms: _108  and  _111
REMARK   50  A    between atoms: _111  and  _112
REMARK   51  A    between atoms: _114  and  _116
REMARK   52  A    between atoms: _116  and  _117
REMARK   53  A    between atoms: _116  and  _119
REMARK   54  A    between atoms: _119  and  _120
REMARK   55  A    between atoms: _125  and  _127
REMARK   56  A    between atoms: _127  and  _128
REMARK   57  A    between atoms: _127  and  _130
REMARK   58  A    between atoms: _130  and  _131
REMARK   59  A    between atoms: _136  and  _137
REMARK   60  A    between atoms: _139  and  _141
REMARK   61  A    between atoms: _141  and  _142
REMARK   62  A    between atoms: _141  and  _144
REMARK   63  A    between atoms: _148  and  _149
REMARK   64  A    between atoms: _154  and  _156
REMARK   65  A    between atoms: _156  and  _157
REMARK   66  A    between atoms: _156  and  _159
REMARK   67  A    between atoms: _159  and  _160
REMARK   68  A    between atoms: _165  and  _166
REMARK   69  A    between atoms: _168  and  _170
REMARK   70  A    between atoms: _170  and  _171
REMARK   71  A    between atoms: _170  and  _173
REMARK   72  A    between atoms: _173  and  _174
REMARK   73  A    between atoms: _177  and  _179
REMARK   74  A    between atoms: _179  and  _180
REMARK   75  A    between atoms: _179  and  _182
REMARK   76  A    between atoms: _182  and  _183
REMARK   77  A    between atoms: _183  and  _184
REMARK   78  A    between atoms: _189  and  _191
REMARK   79  A    between atoms: _191  and  _192
REMARK   80  A    between atoms: _194  and  _196
REMARK   81  A    between atoms: _196  and  _197
REMARK   82  A    between atoms: _196  and  _199
REMARK   83  A    between atoms: _199  and  _200
REMARK   84  A    between atoms: _200  and  _201
REMARK   85  A    between atoms: _201  and  _202
REMARK   86  A    between atoms: _202  and  _203
REMARK   87  A    between atoms: _207  and  _209
REMARK   88  A    between atoms: _209  and  _210
REMARK   89  A    between atoms: _209  and  _212
REMARK   90  A    between atoms: _212  and  _213
REMARK   91  A    between atoms: _223  and  _225
REMARK   92  A    between atoms: _225  and  _226
REMARK   93  A    between atoms: _225  and  _228
REMARK   94  A    between atoms: _228  and  _229
REMARK   95  A    between atoms: _232  and  _234
REMARK   96  A    between atoms: _234  and  _235
REMARK   97  A    between atoms: _234  and  _237
REMARK   98  A    between atoms: _237  and  _238
REMARK   99  A    between atoms: _238  and  _239
REMARK  100  A    between atoms: _239  and  _240
REMARK  101  A    between atoms: _240  and  _241
REMARK  102  A    between atoms: _245  and  _247
REMARK  103  A    between atoms: _247  and  _248
REMARK  104  A    between atoms: _247  and  _250
REMARK  105  A    between atoms: _250  and  _251
REMARK  106  A    between atoms: _257  and  _259
REMARK  107  A    between atoms: _259  and  _260
REMARK  108  A    between atoms: _259  and  _262
REMARK  109  A    between atoms: _262  and  _263
REMARK  110  A    between atoms: _269  and  _271
REMARK  111  A    between atoms: _271  and  _272
REMARK  112  A    between atoms: _271  and  _274
REMARK  113  A    between atoms: _274  and  _275
REMARK  114  A    between atoms: _278  and  _280
REMARK  115  A    between atoms: _280  and  _281
REMARK  116  A    between atoms: _280  and  _283
REMARK  117  A    between atoms: _283  and  _284
REMARK  118  A    between atoms: _286  and  _288
REMARK  119  A    between atoms: _288  and  _289
REMARK  120  A    between atoms: _288  and  _291
REMARK  121  A    between atoms: _291  and  _292
REMARK  122  A    between atoms: _302  and  _304
REMARK  123  A    between atoms: _304  and  _305
REMARK  124  A    between atoms: _307  and  _309
REMARK  125  A    between atoms: _309  and  _310
REMARK  126  A    between atoms: _309  and  _312
REMARK  127  A    between atoms: _312  and  _313
REMARK  128  A    between atoms: _316  and  _318
REMARK  129  A    between atoms: _318  and  _319
REMARK  130  A    between atoms: _318  and  _321
REMARK  131  A    between atoms: _321  and  _322
REMARK  132  A    between atoms: _325  and  _327
REMARK  133  A    between atoms: _327  and  _328
REMARK  134  A    between atoms: _327  and  _330
REMARK  135  A    between atoms: _330  and  _331
REMARK  136  A    between atoms: _334  and  _336
REMARK  137  A    between atoms: _336  and  _337
REMARK  138  A    between atoms: _340  and  _342
REMARK  139  A    between atoms: _342  and  _343
REMARK  140  A    between atoms: _342  and  _345
REMARK  141  A    between atoms: _345  and  _346
REMARK  142  A    between atoms: _351  and  _352
REMARK  143  A    between atoms: _354  and  _356
REMARK  144  A    between atoms: _356  and  _357
REMARK  145  A    between atoms: _360  and  _362
REMARK  146  A    between atoms: _362  and  _363
REMARK  147  A    between atoms: _362  and  _365
REMARK  148  A    between atoms: _365  and  _366
REMARK  149  A    between atoms: _366  and  _367
REMARK  150  A    between atoms: _370  and  _372
REMARK  151  A    between atoms: _372  and  _373
REMARK  152  A    between atoms: _372  and  _375
REMARK  153  A    between atoms: _375  and  _376
REMARK  154  A    between atoms: _379  and  _381
REMARK  155  A    between atoms: _381  and  _382
REMARK  156  A    between atoms: _385  and  _387
REMARK  157  A    between atoms: _387  and  _388
REMARK  158  A    between atoms: _387  and  _390
REMARK  159  A    between atoms: _390  and  _391
REMARK  160  A    between atoms: _391  and  _392
REMARK  161  A    between atoms: _392  and  _393
REMARK  162  A    between atoms: _403  and  _404
REMARK  163  A    between atoms: _409  and  _411
REMARK  164  A    between atoms: _411  and  _412
REMARK  165  A    between atoms: _411  and  _414
REMARK  166  A    between atoms: _414  and  _415
REMARK  167  A    between atoms: _418  and  _420
REMARK  168  A    between atoms: _420  and  _421
REMARK  169  A    between atoms: _420  and  _423
REMARK  170  A    between atoms: _423  and  _424
REMARK  171  A    between atoms: _427  and  _429
REMARK  172  A    between atoms: _429  and  _430
REMARK  173  A    between atoms: _429  and  _432
REMARK  174  A    between atoms: _432  and  _433
REMARK  175  A    between atoms: _433  and  _434
REMARK  176  A    between atoms: _434  and  _435
REMARK  177  A    between atoms: _444  and  _446
REMARK  178  A    between atoms: _446  and  _447
REMARK  179  A    between atoms: _446  and  _449
REMARK  180  A    between atoms: _449  and  _450
REMARK  181  A    between atoms: _460  and  _462
REMARK  182  A    between atoms: _462  and  _463
REMARK  183  A    between atoms: _462  and  _465
REMARK  184  A    between atoms: _465  and  _466
REMARK  185  A    between atoms: _471  and  _472
REMARK  186  A    between atoms: _474  and  _476
REMARK  187  A    between atoms: _476  and  _477
REMARK  188  A    between atoms: _476  and  _479
REMARK  189  A    between atoms: _479  and  _480
REMARK  190  A    between atoms: _480  and  _481
REMARK  191  A    between atoms: _481  and  _482
REMARK  192  A    between atoms: _482  and  _483
REMARK  193  A    between atoms: _487  and  _489
REMARK  194  A    between atoms: _489  and  _490
REMARK  195  A    between atoms: _489  and  _492
REMARK  196  A    between atoms: _492  and  _493
REMARK  197  A    between atoms: _496  and  _498
REMARK  198  A    between atoms: _498  and  _499
REMARK  199  A    between atoms: _498  and  _501
REMARK  200  A    between atoms: _504  and  _506
REMARK  201  A    between atoms: _506  and  _507
REMARK  202  A    between atoms: _506  and  _509
REMARK  203  A    between atoms: _509  and  _510
REMARK  204  A    between atoms: _513  and  _515
REMARK  205  A    between atoms: _515  and  _516
REMARK  206  A    between atoms: _515  and  _518
REMARK  207  A    between atoms: _518  and  _519
REMARK  208  A    between atoms: _521  and  _523
REMARK  209  A    between atoms: _523  and  _524
REMARK  210  A    between atoms: _526  and  _528
REMARK  211  A    between atoms: _528  and  _529
REMARK  212  A    between atoms: _528  and  _531
REMARK  213  A    between atoms: _531  and  _532
REMARK  214  A    between atoms: _535  and  _537
REMARK  215  A    between atoms: _537  and  _538
REMARK  216  A    between atoms: _537  and  _540
REMARK  217  A    between atoms: _540  and  _541
REMARK  218  A    between atoms: _544  and  _546
REMARK  219  A    between atoms: _546  and  _547
REMARK  220  A    between atoms: _546  and  _549
REMARK  221  A    between atoms: _549  and  _550
REMARK  222  A    between atoms: _555  and  _557
REMARK  223  A    between atoms: _557  and  _558
REMARK  224  A    between atoms: _557  and  _560
REMARK  225  A    between atoms: _560  and  _561
REMARK  226  A    between atoms: _564  and  _566
REMARK  227  A    between atoms: _566  and  _567
REMARK  228  A    between atoms: _566  and  _569
REMARK  229  A    between atoms: _569  and  _570
REMARK  230  A    between atoms: _570  and  _571
REMARK  231  A    between atoms: _571  and  _572
REMARK  232  A    between atoms: _581  and  _583
REMARK  233  A    between atoms: _583  and  _584
REMARK  234  A    between atoms: _586  and  _588
REMARK  235  A    between atoms: _588  and  _589
REMARK  236  A    between atoms: _588  and  _591
REMARK  237  A    between atoms: _591  and  _592
REMARK  238  A    between atoms: _592  and  _593
REMARK  239  A    between atoms: _596  and  _598
REMARK  240  A    between atoms: _598  and  _599
REMARK  241  A    between atoms: _598  and  _601
REMARK  242  A    between atoms: _601  and  _602
REMARK  243  A    between atoms: _602  and  _603
REMARK  244  A    between atoms: _603  and  _604
REMARK  245  A    between atoms: _614  and  _615
REMARK  246  A    between atoms: _620  and  _622
REMARK  247  A    between atoms: _622  and  _623
REMARK  248  A    between atoms: _622  and  _625
REMARK  249  A    between atoms: _628  and  _630
REMARK  250  A    between atoms: _630  and  _631
REMARK  251  A    between atoms: _630  and  _633
REMARK  252  A    between atoms: _633  and  _634
REMARK  253  A    between atoms: _634  and  _635
REMARK  254  A    between atoms: _638  and  _640
REMARK  255  A    between atoms: _640  and  _641
REMARK  256  A    between atoms: _640  and  _643
REMARK  257  A    between atoms: _643  and  _644
REMARK  258  A    between atoms: _644  and  _645
REMARK  259  A    between atoms: _645  and  _646
REMARK  260  A    between atoms: _646  and  _647
REMARK  261  A    between atoms: _651  and  _653
REMARK  262  A    between atoms: _653  and  _654
REMARK  263  A    between atoms: _657  and  _659
REMARK  264  A    between atoms: _659  and  _660
REMARK  265  A    between atoms: _659  and  _662
REMARK  266  A    between atoms: _662  and  _663
REMARK  267  A    between atoms: _665  and  _667
REMARK  268  A    between atoms: _667  and  _668
REMARK  269  A    between atoms: _667  and  _670
REMARK  270  A    between atoms: _670  and  _671
REMARK  271  A    between atoms: _671  and  _672
REMARK  272  A    between atoms: _677  and  _679
REMARK  273  A    between atoms: _679  and  _680
REMARK  274  A    between atoms: _679  and  _682
REMARK  275  A    between atoms: _682  and  _683
REMARK  276  A    between atoms: _685  and  _687
REMARK  277  A    between atoms: _687  and  _688
REMARK  278  A    between atoms: _687  and  _690
REMARK  279  A    between atoms: _690  and  _691
REMARK  280  A    between atoms: _694  and  _696
REMARK  281  A    between atoms: _696  and  _697
REMARK  282  A    between atoms: _696  and  _699
REMARK  283  A    between atoms: _699  and  _700
REMARK  284  A    between atoms: _703  and  _705
REMARK  285  A    between atoms: _705  and  _706
REMARK  286  A    between atoms: _705  and  _708
REMARK  287  A    between atoms: _711  and  _713
REMARK  288  A    between atoms: _713  and  _714
REMARK  289  A    between atoms: _716  and  _718
REMARK  290  A    between atoms: _718  and  _719
REMARK  291  A    between atoms: _722  and  _724
REMARK  292  A    between atoms: _724  and  _725
REMARK  293  A    between atoms: _724  and  _727
REMARK                            x       y       z     vdW  Elec       q    Type
REMARK                         _______ _______ _______ _____ _____    ______ ____
ROOT
ATOM      1  O   HOH     1       8.491  25.765  27.625  0.00  0.00    +0.000 OA
ENDROOT
TORSDOF 0
REMARK  Name = ../refined-set-2016/1m4h/1m4h_pocket.pdb
REMARK  293 active torsions:
REMARK  status: ('A' for Active; 'I' for Inactive)
REMARK    1  A    between atoms: _1  and  _3
REMARK    2  A    between atoms: _3  and  _4
REMARK    3  A    between atoms: _3  and  _6
REMARK    4  A    between atoms: _6  and  _7
REMARK    5  A    between atoms: _7  and  _8
REMARK    6  A    between atoms: _8  and  _9
REMARK    7  A    between atoms: _9  and  _10
REMARK    8  A    between atoms: _14  and  _16
REMARK    9  A    between atoms: _16  and  _17
REMARK   10  A    between atoms: _16  and  _19
REMARK   11  A    between atoms: _19  and  _20
REMARK   12  A    between atoms: _22  and  _24
REMARK   13  A    between atoms: _24  and  _25
REMARK   14  A    between atoms: _27  and  _29
REMARK   15  A    between atoms: _29  and  _30
REMARK   16  A    between atoms: _29  and  _32
REMARK   17  A    between atoms: _32  and  _33
REMARK   18  A    between atoms: _33  and  _34
REMARK   19  A    between atoms: _39  and  _41
REMARK   20  A    between atoms: _41  and  _42
REMARK   21  A    between atoms: _44  and  _46
REMARK   22  A    between atoms: _46  and  _47
REMARK   23  A    between atoms: _46  and  _49
REMARK   24  A    between atoms: _49  and  _50
REMARK   25  A    between atoms: _55  and  _56
REMARK   26  A    between atoms: _58  and  _60
REMARK   27  A    between atoms: _60  and  _61
REMARK   28  A    between atoms: _60  and  _63
REMARK   29  A    between atoms: _63  and  _64
REMARK   30  A    between atoms: _67  and  _69
REMARK   31  A    between atoms: _69  and  _70
REMARK   32  A    between atoms: _69  and  _72
REMARK   33  A    between atoms: _75  and  _77
REMARK   34  A    between atoms: _77  and  _78
REMARK   35  A    between atoms: _77  and  _80
REMARK   36  A    between atoms: _80  and  _81
REMARK   37  A    between atoms: _84  and  _86
REMARK   38  A    between atoms: _86  and  _87
REMARK   39  A    between atoms: _86  and  _89
REMARK   40  A    between atoms: _89  and  _90
REMARK   41  A    between atoms: _93  and  _95
REMARK   42  A    between atoms: _95  and  _96
REMARK   43  A    between atoms: _98  and  _100
REMARK   44  A    between atoms: _100  and  _101
REMARK   45  A    between atoms: _100  and  _103
REMARK   46  A    between atoms: _103  and  _104
REMARK   47  A    between atoms: _106  and  _108
REMARK   48  A    between atoms: _108  and  _109
REMARK   49  A    between atoms: _108  and  _111
REMARK   50  A    between atoms: _111  and  _112
REMARK   51  A    between atoms: _114  and  _116
REMARK   52  A    between atoms: _116  and  _117
REMARK   53  A    between atoms: _116  and  _119
REMARK   54  A    between atoms: _119  and  _120
REMARK   55  A    between atoms: _125  and  _127
REMARK   56  A    between atoms: _127  and  _128
REMARK   57  A    between atoms: _127  and  _130
REMARK   58  A    between atoms: _130  and  _131
REMARK   59  A    between atoms: _136  and  _137
REMARK   60  A    between atoms: _139  and  _141
REMARK   61  A    between atoms: _141  and  _142
REMARK   62  A    between atoms: _141  and  _144
REMARK   63  A    between atoms: _148  and  _149
REMARK   64  A    between atoms: _154  and  _156
REMARK   65  A    between atoms: _156  and  _157
REMARK   66  A    between atoms: _156  and  _159
REMARK   67  A    between atoms: _159  and  _160
REMARK   68  A    between atoms: _165  and  _166
REMARK   69  A    between atoms: _168  and  _170
REMARK   70  A    between atoms: _170  and  _171
REMARK   71  A    between atoms: _170  and  _173
REMARK   72  A    between atoms: _173  and  _174
REMARK   73  A    between atoms: _177  and  _179
REMARK   74  A    between atoms: _179  and  _180
REMARK   75  A    between atoms: _179  and  _182
REMARK   76  A    between atoms: _182  and  _183
REMARK   77  A    between atoms: _183  and  _184
REMARK   78  A    between atoms: _189  and  _191
REMARK   79  A    between atoms: _191  and  _192
REMARK   80  A    between atoms: _194  and  _196
REMARK   81  A    between atoms: _196  and  _197
REMARK   82  A    between atoms: _196  and  _199
REMARK   83  A    between atoms: _199  and  _200
REMARK   84  A    between atoms: _200  and  _201
REMARK   85  A    between atoms: _201  and  _202
REMARK   86  A    between atoms: _202  and  _203
REMARK   87  A    between atoms: _207  and  _209
REMARK   88  A    between atoms: _209  and  _210
REMARK   89  A    between atoms: _209  and  _212
REMARK   90  A    between atoms: _212  and  _213
REMARK   91  A    between atoms: _223  and  _225
REMARK   92  A    between atoms: _225  and  _226
REMARK   93  A    between atoms: _225  and  _228
REMARK   94  A    between atoms: _228  and  _229
REMARK   95  A    between atoms: _232  and  _234
REMARK   96  A    between atoms: _234  and  _235
REMARK   97  A    between atoms: _234  and  _237
REMARK   98  A    between atoms: _237  and  _238
REMARK   99  A    between atoms: _238  and  _239
REMARK  100  A    between atoms: _239  and  _240
REMARK  101  A    between atoms: _240  and  _241
REMARK  102  A    between atoms: _245  and  _247
REMARK  103  A    between atoms: _247  and  _248
REMARK  104  A    between atoms: _247  and  _250
REMARK  105  A    between atoms: _250  and  _251
REMARK  106  A    between atoms: _257  and  _259
REMARK  107  A    between atoms: _259  and  _260
REMARK  108  A    between atoms: _259  and  _262
REMARK  109  A    between atoms: _262  and  _263
REMARK  110  A    between atoms: _269  and  _271
REMARK  111  A    between atoms: _271  and  _272
REMARK  112  A    between atoms: _271  and  _274
REMARK  113  A    between atoms: _274  and  _275
REMARK  114  A    between atoms: _278  and  _280
REMARK  115  A    between atoms: _280  and  _281
REMARK  116  A    between atoms: _280  and  _283
REMARK  117  A    between atoms: _283  and  _284
REMARK  118  A    between atoms: _286  and  _288
REMARK  119  A    between atoms: _288  and  _289
REMARK  120  A    between atoms: _288  and  _291
REMARK  121  A    between atoms: _291  and  _292
REMARK  122  A    between atoms: _302  and  _304
REMARK  123  A    between atoms: _304  and  _305
REMARK  124  A    between atoms: _307  and  _309
REMARK  125  A    between atoms: _309  and  _310
REMARK  126  A    between atoms: _309  and  _312
REMARK  127  A    between atoms: _312  and  _313
REMARK  128  A    between atoms: _316  and  _318
REMARK  129  A    between atoms: _318  and  _319
REMARK  130  A    between atoms: _318  and  _321
REMARK  131  A    between atoms: _321  and  _322
REMARK  132  A    between atoms: _325  and  _327
REMARK  133  A    between atoms: _327  and  _328
REMARK  134  A    between atoms: _327  and  _330
REMARK  135  A    between atoms: _330  and  _331
REMARK  136  A    between atoms: _334  and  _336
REMARK  137  A    between atoms: _336  and  _337
REMARK  138  A    between atoms: _340  and  _342
REMARK  139  A    between atoms: _342  and  _343
REMARK  140  A    between atoms: _342  and  _345
REMARK  141  A    between atoms: _345  and  _346
REMARK  142  A    between atoms: _351  and  _352
REMARK  143  A    between atoms: _354  and  _356
REMARK  144  A    between atoms: _356  and  _357
REMARK  145  A    between atoms: _360  and  _362
REMARK  146  A    between atoms: _362  and  _363
REMARK  147  A    between atoms: _362  and  _365
REMARK  148  A    between atoms: _365  and  _366
REMARK  149  A    between atoms: _366  and  _367
REMARK  150  A    between atoms: _370  and  _372
REMARK  151  A    between atoms: _372  and  _373
REMARK  152  A    between atoms: _372  and  _375
REMARK  153  A    between atoms: _375  and  _376
REMARK  154  A    between atoms: _379  and  _381
REMARK  155  A    between atoms: _381  and  _382
REMARK  156  A    between atoms: _385  and  _387
REMARK  157  A    between atoms: _387  and  _388
REMARK  158  A    between atoms: _387  and  _390
REMARK  159  A    between atoms: _390  and  _391
REMARK  160  A    between atoms: _391  and  _392
REMARK  161  A    between atoms: _392  and  _393
REMARK  162  A    between atoms: _403  and  _404
REMARK  163  A    between atoms: _409  and  _411
REMARK  164  A    between atoms: _411  and  _412
REMARK  165  A    between atoms: _411  and  _414
REMARK  166  A    between atoms: _414  and  _415
REMARK  167  A    between atoms: _418  and  _420
REMARK  168  A    between atoms: _420  and  _421
REMARK  169  A    between atoms: _420  and  _423
REMARK  170  A    between atoms: _423  and  _424
REMARK  171  A    between atoms: _427  and  _429
REMARK  172  A    between atoms: _429  and  _430
REMARK  173  A    between atoms: _429  and  _432
REMARK  174  A    between atoms: _432  and  _433
REMARK  175  A    between atoms: _433  and  _434
REMARK  176  A    between atoms: _434  and  _435
REMARK  177  A    between atoms: _444  and  _446
REMARK  178  A    between atoms: _446  and  _447
REMARK  179  A    between atoms: _446  and  _449
REMARK  180  A    between atoms: _449  and  _450
REMARK  181  A    between atoms: _460  and  _462
REMARK  182  A    between atoms: _462  and  _463
REMARK  183  A    between atoms: _462  and  _465
REMARK  184  A    between atoms: _465  and  _466
REMARK  185  A    between atoms: _471  and  _472
REMARK  186  A    between atoms: _474  and  _476
REMARK  187  A    between atoms: _476  and  _477
REMARK  188  A    between atoms: _476  and  _479
REMARK  189  A    between atoms: _479  and  _480
REMARK  190  A    between atoms: _480  and  _481
REMARK  191  A    between atoms: _481  and  _482
REMARK  192  A    between atoms: _482  and  _483
REMARK  193  A    between atoms: _487  and  _489
REMARK  194  A    between atoms: _489  and  _490
REMARK  195  A    between atoms: _489  and  _492
REMARK  196  A    between atoms: _492  and  _493
REMARK  197  A    between atoms: _496  and  _498
REMARK  198  A    between atoms: _498  and  _499
REMARK  199  A    between atoms: _498  and  _501
REMARK  200  A    between atoms: _504  and  _506
REMARK  201  A    between atoms: _506  and  _507
REMARK  202  A    between atoms: _506  and  _509
REMARK  203  A    between atoms: _509  and  _510
REMARK  204  A    between atoms: _513  and  _515
REMARK  205  A    between atoms: _515  and  _516
REMARK  206  A    between atoms: _515  and  _518
REMARK  207  A    between atoms: _518  and  _519
REMARK  208  A    between atoms: _521  and  _523
REMARK  209  A    between atoms: _523  and  _524
REMARK  210  A    between atoms: _526  and  _528
REMARK  211  A    between atoms: _528  and  _529
REMARK  212  A    between atoms: _528  and  _531
REMARK  213  A    between atoms: _531  and  _532
REMARK  214  A    between atoms: _535  and  _537
REMARK  215  A    between atoms: _537  and  _538
REMARK  216  A    between atoms: _537  and  _540
REMARK  217  A    between atoms: _540  and  _541
REMARK  218  A    between atoms: _544  and  _546
REMARK  219  A    between atoms: _546  and  _547
REMARK  220  A    between atoms: _546  and  _549
REMARK  221  A    between atoms: _549  and  _550
REMARK  222  A    between atoms: _555  and  _557
REMARK  223  A    between atoms: _557  and  _558
REMARK  224  A    between atoms: _557  and  _560
REMARK  225  A    between atoms: _560  and  _561
REMARK  226  A    between atoms: _564  and  _566
REMARK  227  A    between atoms: _566  and  _567
REMARK  228  A    between atoms: _566  and  _569
REMARK  229  A    between atoms: _569  and  _570
REMARK  230  A    between atoms: _570  and  _571
REMARK  231  A    between atoms: _571  and  _572
REMARK  232  A    between atoms: _581  and  _583
REMARK  233  A    between atoms: _583  and  _584
REMARK  234  A    between atoms: _586  and  _588
REMARK  235  A    between atoms: _588  and  _589
REMARK  236  A    between atoms: _588  and  _591
REMARK  237  A    between atoms: _591  and  _592
REMARK  238  A    between atoms: _592  and  _593
REMARK  239  A    between atoms: _596  and  _598
REMARK  240  A    between atoms: _598  and  _599
REMARK  241  A    between atoms: _598  and  _601
REMARK  242  A    between atoms: _601  and  _602
REMARK  243  A    between atoms: _602  and  _603
REMARK  244  A    between atoms: _603  and  _604
REMARK  245  A    between atoms: _614  and  _615
REMARK  246  A    between atoms: _620  and  _622
REMARK  247  A    between atoms: _622  and  _623
REMARK  248  A    between atoms: _622  and  _625
REMARK  249  A    between atoms: _628  and  _630
REMARK  250  A    between atoms: _630  and  _631
REMARK  251  A    between atoms: _630  and  _633
REMARK  252  A    between atoms: _633  and  _634
REMARK  253  A    between atoms: _634  and  _635
REMARK  254  A    between atoms: _638  and  _640
REMARK  255  A    between atoms: _640  and  _641
REMARK  256  A    between atoms: _640  and  _643
REMARK  257  A    between atoms: _643  and  _644
REMARK  258  A    between atoms: _644  and  _645
REMARK  259  A    between atoms: _645  and  _646
REMARK  260  A    between atoms: _646  and  _647
REMARK  261  A    between atoms: _651  and  _653
REMARK  262  A    between atoms: _653  and  _654
REMARK  263  A    between atoms: _657  and  _659
REMARK  264  A    between atoms: _659  and  _660
REMARK  265  A    between atoms: _659  and  _662
REMARK  266  A    between atoms: _662  and  _663
REMARK  267  A    between atoms: _665  and  _667
REMARK  268  A    between atoms: _667  and  _668
REMARK  269  A    between atoms: _667  and  _670
REMARK  270  A    between atoms: _670  and  _671
REMARK  271  A    between atoms: _671  and  _672
REMARK  272  A    between atoms: _677  and  _679
REMARK  273  A    between atoms: _679  and  _680
REMARK  274  A    between atoms: _679  and  _682
REMARK  275  A    between atoms: _682  and  _683
REMARK  276  A    between atoms: _685  and  _687
REMARK  277  A    between atoms: _687  and  _688
REMARK  278  A    between atoms: _687  and  _690
REMARK  279  A    between atoms: _690  and  _691
REMARK  280  A    between atoms: _694  and  _696
REMARK  281  A    between atoms: _696  and  _697
REMARK  282  A    between atoms: _696  and  _699
REMARK  283  A    between atoms: _699  and  _700
REMARK  284  A    between atoms: _703  and  _705
REMARK  285  A    between atoms: _705  and  _706
REMARK  286  A    between atoms: _705  and  _708
REMARK  287  A    between atoms: _711  and  _713
REMARK  288  A    between atoms: _713  and  _714
REMARK  289  A    between atoms: _716  and  _718
REMARK  290  A    between atoms: _718  and  _719
REMARK  291  A    between atoms: _722  and  _724
REMARK  292  A    between atoms: _724  and  _725
REMARK  293  A    between atoms: _724  and  _727
REMARK                            x       y       z     vdW  Elec       q    Type
REMARK                         _______ _______ _______ _____ _____    ______ ____
ROOT
ATOM      1  O   HOH     1      12.076  28.364  13.345  0.00  0.00    +0.000 OA
ENDROOT
TORSDOF 0
REMARK  Name = ../refined-set-2016/1m4h/1m4h_pocket.pdb
REMARK  293 active torsions:
REMARK  status: ('A' for Active; 'I' for Inactive)
REMARK    1  A    between atoms: _1  and  _3
REMARK    2  A    between atoms: _3  and  _4
REMARK    3  A    between atoms: _3  and  _6
REMARK    4  A    between atoms: _6  and  _7
REMARK    5  A    between atoms: _7  and  _8
REMARK    6  A    between atoms: _8  and  _9
REMARK    7  A    between atoms: _9  and  _10
REMARK    8  A    between atoms: _14  and  _16
REMARK    9  A    between atoms: _16  and  _17
REMARK   10  A    between atoms: _16  and  _19
REMARK   11  A    between atoms: _19  and  _20
REMARK   12  A    between atoms: _22  and  _24
REMARK   13  A    between atoms: _24  and  _25
REMARK   14  A    between atoms: _27  and  _29
REMARK   15  A    between atoms: _29  and  _30
REMARK   16  A    between atoms: _29  and  _32
REMARK   17  A    between atoms: _32  and  _33
REMARK   18  A    between atoms: _33  and  _34
REMARK   19  A    between atoms: _39  and  _41
REMARK   20  A    between atoms: _41  and  _42
REMARK   21  A    between atoms: _44  and  _46
REMARK   22  A    between atoms: _46  and  _47
REMARK   23  A    between atoms: _46  and  _49
REMARK   24  A    between atoms: _49  and  _50
REMARK   25  A    between atoms: _55  and  _56
REMARK   26  A    between atoms: _58  and  _60
REMARK   27  A    between atoms: _60  and  _61
REMARK   28  A    between atoms: _60  and  _63
REMARK   29  A    between atoms: _63  and  _64
REMARK   30  A    between atoms: _67  and  _69
REMARK   31  A    between atoms: _69  and  _70
REMARK   32  A    between atoms: _69  and  _72
REMARK   33  A    between atoms: _75  and  _77
REMARK   34  A    between atoms: _77  and  _78
REMARK   35  A    between atoms: _77  and  _80
REMARK   36  A    between atoms: _80  and  _81
REMARK   37  A    between atoms: _84  and  _86
REMARK   38  A    between atoms: _86  and  _87
REMARK   39  A    between atoms: _86  and  _89
REMARK   40  A    between atoms: _89  and  _90
REMARK   41  A    between atoms: _93  and  _95
REMARK   42  A    between atoms: _95  and  _96
REMARK   43  A    between atoms: _98  and  _100
REMARK   44  A    between atoms: _100  and  _101
REMARK   45  A    between atoms: _100  and  _103
REMARK   46  A    between atoms: _103  and  _104
REMARK   47  A    between atoms: _106  and  _108
REMARK   48  A    between atoms: _108  and  _109
REMARK   49  A    between atoms: _108  and  _111
REMARK   50  A    between atoms: _111  and  _112
REMARK   51  A    between atoms: _114  and  _116
REMARK   52  A    between atoms: _116  and  _117
REMARK   53  A    between atoms: _116  and  _119
REMARK   54  A    between atoms: _119  and  _120
REMARK   55  A    between atoms: _125  and  _127
REMARK   56  A    between atoms: _127  and  _128
REMARK   57  A    between atoms: _127  and  _130
REMARK   58  A    between atoms: _130  and  _131
REMARK   59  A    between atoms: _136  and  _137
REMARK   60  A    between atoms: _139  and  _141
REMARK   61  A    between atoms: _141  and  _142
REMARK   62  A    between atoms: _141  and  _144
REMARK   63  A    between atoms: _148  and  _149
REMARK   64  A    between atoms: _154  and  _156
REMARK   65  A    between atoms: _156  and  _157
REMARK   66  A    between atoms: _156  and  _159
REMARK   67  A    between atoms: _159  and  _160
REMARK   68  A    between atoms: _165  and  _166
REMARK   69  A    between atoms: _168  and  _170
REMARK   70  A    between atoms: _170  and  _171
REMARK   71  A    between atoms: _170  and  _173
REMARK   72  A    between atoms: _173  and  _174
REMARK   73  A    between atoms: _177  and  _179
REMARK   74  A    between atoms: _179  and  _180
REMARK   75  A    between atoms: _179  and  _182
REMARK   76  A    between atoms: _182  and  _183
REMARK   77  A    between atoms: _183  and  _184
REMARK   78  A    between atoms: _189  and  _191
REMARK   79  A    between atoms: _191  and  _192
REMARK   80  A    between atoms: _194  and  _196
REMARK   81  A    between atoms: _196  and  _197
REMARK   82  A    between atoms: _196  and  _199
REMARK   83  A    between atoms: _199  and  _200
REMARK   84  A    between atoms: _200  and  _201
REMARK   85  A    between atoms: _201  and  _202
REMARK   86  A    between atoms: _202  and  _203
REMARK   87  A    between atoms: _207  and  _209
REMARK   88  A    between atoms: _209  and  _210
REMARK   89  A    between atoms: _209  and  _212
REMARK   90  A    between atoms: _212  and  _213
REMARK   91  A    between atoms: _223  and  _225
REMARK   92  A    between atoms: _225  and  _226
REMARK   93  A    between atoms: _225  and  _228
REMARK   94  A    between atoms: _228  and  _229
REMARK   95  A    between atoms: _232  and  _234
REMARK   96  A    between atoms: _234  and  _235
REMARK   97  A    between atoms: _234  and  _237
REMARK   98  A    between atoms: _237  and  _238
REMARK   99  A    between atoms: _238  and  _239
REMARK  100  A    between atoms: _239  and  _240
REMARK  101  A    between atoms: _240  and  _241
REMARK  102  A    between atoms: _245  and  _247
REMARK  103  A    between atoms: _247  and  _248
REMARK  104  A    between atoms: _247  and  _250
REMARK  105  A    between atoms: _250  and  _251
REMARK  106  A    between atoms: _257  and  _259
REMARK  107  A    between atoms: _259  and  _260
REMARK  108  A    between atoms: _259  and  _262
REMARK  109  A    between atoms: _262  and  _263
REMARK  110  A    between atoms: _269  and  _271
REMARK  111  A    between atoms: _271  and  _272
REMARK  112  A    between atoms: _271  and  _274
REMARK  113  A    between atoms: _274  and  _275
REMARK  114  A    between atoms: _278  and  _280
REMARK  115  A    between atoms: _280  and  _281
REMARK  116  A    between atoms: _280  and  _283
REMARK  117  A    between atoms: _283  and  _284
REMARK  118  A    between atoms: _286  and  _288
REMARK  119  A    between atoms: _288  and  _289
REMARK  120  A    between atoms: _288  and  _291
REMARK  121  A    between atoms: _291  and  _292
REMARK  122  A    between atoms: _302  and  _304
REMARK  123  A    between atoms: _304  and  _305
REMARK  124  A    between atoms: _307  and  _309
REMARK  125  A    between atoms: _309  and  _310
REMARK  126  A    between atoms: _309  and  _312
REMARK  127  A    between atoms: _312  and  _313
REMARK  128  A    between atoms: _316  and  _318
REMARK  129  A    between atoms: _318  and  _319
REMARK  130  A    between atoms: _318  and  _321
REMARK  131  A    between atoms: _321  and  _322
REMARK  132  A    between atoms: _325  and  _327
REMARK  133  A    between atoms: _327  and  _328
REMARK  134  A    between atoms: _327  and  _330
REMARK  135  A    between atoms: _330  and  _331
REMARK  136  A    between atoms: _334  and  _336
REMARK  137  A    between atoms: _336  and  _337
REMARK  138  A    between atoms: _340  and  _342
REMARK  139  A    between atoms: _342  and  _343
REMARK  140  A    between atoms: _342  and  _345
REMARK  141  A    between atoms: _345  and  _346
REMARK  142  A    between atoms: _351  and  _352
REMARK  143  A    between atoms: _354  and  _356
REMARK  144  A    between atoms: _356  and  _357
REMARK  145  A    between atoms: _360  and  _362
REMARK  146  A    between atoms: _362  and  _363
REMARK  147  A    between atoms: _362  and  _365
REMARK  148  A    between atoms: _365  and  _366
REMARK  149  A    between atoms: _366  and  _367
REMARK  150  A    between atoms: _370  and  _372
REMARK  151  A    between atoms: _372  and  _373
REMARK  152  A    between atoms: _372  and  _375
REMARK  153  A    between atoms: _375  and  _376
REMARK  154  A    between atoms: _379  and  _381
REMARK  155  A    between atoms: _381  and  _382
REMARK  156  A    between atoms: _385  and  _387
REMARK  157  A    between atoms: _387  and  _388
REMARK  158  A    between atoms: _387  and  _390
REMARK  159  A    between atoms: _390  and  _391
REMARK  160  A    between atoms: _391  and  _392
REMARK  161  A    between atoms: _392  and  _393
REMARK  162  A    between atoms: _403  and  _404
REMARK  163  A    between atoms: _409  and  _411
REMARK  164  A    between atoms: _411  and  _412
REMARK  165  A    between atoms: _411  and  _414
REMARK  166  A    between atoms: _414  and  _415
REMARK  167  A    between atoms: _418  and  _420
REMARK  168  A    between atoms: _420  and  _421
REMARK  169  A    between atoms: _420  and  _423
REMARK  170  A    between atoms: _423  and  _424
REMARK  171  A    between atoms: _427  and  _429
REMARK  172  A    between atoms: _429  and  _430
REMARK  173  A    between atoms: _429  and  _432
REMARK  174  A    between atoms: _432  and  _433
REMARK  175  A    between atoms: _433  and  _434
REMARK  176  A    between atoms: _434  and  _435
REMARK  177  A    between atoms: _444  and  _446
REMARK  178  A    between atoms: _446  and  _447
REMARK  179  A    between atoms: _446  and  _449
REMARK  180  A    between atoms: _449  and  _450
REMARK  181  A    between atoms: _460  and  _462
REMARK  182  A    between atoms: _462  and  _463
REMARK  183  A    between atoms: _462  and  _465
REMARK  184  A    between atoms: _465  and  _466
REMARK  185  A    between atoms: _471  and  _472
REMARK  186  A    between atoms: _474  and  _476
REMARK  187  A    between atoms: _476  and  _477
REMARK  188  A    between atoms: _476  and  _479
REMARK  189  A    between atoms: _479  and  _480
REMARK  190  A    between atoms: _480  and  _481
REMARK  191  A    between atoms: _481  and  _482
REMARK  192  A    between atoms: _482  and  _483
REMARK  193  A    between atoms: _487  and  _489
REMARK  194  A    between atoms: _489  and  _490
REMARK  195  A    between atoms: _489  and  _492
REMARK  196  A    between atoms: _492  and  _493
REMARK  197  A    between atoms: _496  and  _498
REMARK  198  A    between atoms: _498  and  _499
REMARK  199  A    between atoms: _498  and  _501
REMARK  200  A    between atoms: _504  and  _506
REMARK  201  A    between atoms: _506  and  _507
REMARK  202  A    between atoms: _506  and  _509
REMARK  203  A    between atoms: _509  and  _510
REMARK  204  A    between atoms: _513  and  _515
REMARK  205  A    between atoms: _515  and  _516
REMARK  206  A    between atoms: _515  and  _518
REMARK  207  A    between atoms: _518  and  _519
REMARK  208  A    between atoms: _521  and  _523
REMARK  209  A    between atoms: _523  and  _524
REMARK  210  A    between atoms: _526  and  _528
REMARK  211  A    between atoms: _528  and  _529
REMARK  212  A    between atoms: _528  and  _531
REMARK  213  A    between atoms: _531  and  _532
REMARK  214  A    between atoms: _535  and  _537
REMARK  215  A    between atoms: _537  and  _538
REMARK  216  A    between atoms: _537  and  _540
REMARK  217  A    between atoms: _540  and  _541
REMARK  218  A    between atoms: _544  and  _546
REMARK  219  A    between atoms: _546  and  _547
REMARK  220  A    between atoms: _546  and  _549
REMARK  221  A    between atoms: _549  and  _550
REMARK  222  A    between atoms: _555  and  _557
REMARK  223  A    between atoms: _557  and  _558
REMARK  224  A    between atoms: _557  and  _560
REMARK  225  A    between atoms: _560  and  _561
REMARK  226  A    between atoms: _564  and  _566
REMARK  227  A    between atoms: _566  and  _567
REMARK  228  A    between atoms: _566  and  _569
REMARK  229  A    between atoms: _569  and  _570
REMARK  230  A    between atoms: _570  and  _571
REMARK  231  A    between atoms: _571  and  _572
REMARK  232  A    between atoms: _581  and  _583
REMARK  233  A    between atoms: _583  and  _584
REMARK  234  A    between atoms: _586  and  _588
REMARK  235  A    between atoms: _588  and  _589
REMARK  236  A    between atoms: _588  and  _591
REMARK  237  A    between atoms: _591  and  _592
REMARK  238  A    between atoms: _592  and  _593
REMARK  239  A    between atoms: _596  and  _598
REMARK  240  A    between atoms: _598  and  _599
REMARK  241  A    between atoms: _598  and  _601
REMARK  242  A    between atoms: _601  and  _602
REMARK  243  A    between atoms: _602  and  _603
REMARK  244  A    between atoms: _603  and  _604
REMARK  245  A    between atoms: _614  and  _615
REMARK  246  A    between atoms: _620  and  _622
REMARK  247  A    between atoms: _622  and  _623
REMARK  248  A    between atoms: _622  and  _625
REMARK  249  A    between atoms: _628  and  _630
REMARK  250  A    between atoms: _630  and  _631
REMARK  251  A    between atoms: _630  and  _633
REMARK  252  A    between atoms: _633  and  _634
REMARK  253  A    between atoms: _634  and  _635
REMARK  254  A    between atoms: _638  and  _640
REMARK  255  A    between atoms: _640  and  _641
REMARK  256  A    between atoms: _640  and  _643
REMARK  257  A    between atoms: _643  and  _644
REMARK  258  A    between atoms: _644  and  _645
REMARK  259  A    between atoms: _645  and  _646
REMARK  260  A    between atoms: _646  and  _647
REMARK  261  A    between atoms: _651  and  _653
REMARK  262  A    between atoms: _653  and  _654
REMARK  263  A    between atoms: _657  and  _659
REMARK  264  A    between atoms: _659  and  _660
REMARK  265  A    between atoms: _659  and  _662
REMARK  266  A    between atoms: _662  and  _663
REMARK  267  A    between atoms: _665  and  _667
REMARK  268  A    between atoms: _667  and  _668
REMARK  269  A    between atoms: _667  and  _670
REMARK  270  A    between atoms: _670  and  _671
REMARK  271  A    between atoms: _671  and  _672
REMARK  272  A    between atoms: _677  and  _679
REMARK  273  A    between atoms: _679  and  _680
REMARK  274  A    between atoms: _679  and  _682
REMARK  275  A    between atoms: _682  and  _683
REMARK  276  A    between atoms: _685  and  _687
REMARK  277  A    between atoms: _687  and  _688
REMARK  278  A    between atoms: _687  and  _690
REMARK  279  A    between atoms: _690  and  _691
REMARK  280  A    between atoms: _694  and  _696
REMARK  281  A    between atoms: _696  and  _697
REMARK  282  A    between atoms: _696  and  _699
REMARK  283  A    between atoms: _699  and  _700
REMARK  284  A    between atoms: _703  and  _705
REMARK  285  A    between atoms: _705  and  _706
REMARK  286  A    between atoms: _705  and  _708
REMARK  287  A    between atoms: _711  and  _713
REMARK  288  A    between atoms: _713  and  _714
REMARK  289  A    between atoms: _716  and  _718
REMARK  290  A    between atoms: _718  and  _719
REMARK  291  A    between atoms: _722  and  _724
REMARK  292  A    between atoms: _724  and  _725
REMARK  293  A    between atoms: _724  and  _727
REMARK                            x       y       z     vdW  Elec       q    Type
REMARK                         _______ _______ _______ _____ _____    ______ ____
ROOT
ATOM      1  O   HOH     1      12.759  36.288  23.678  0.00  0.00    +0.000 OA
ENDROOT
TORSDOF 0
REMARK  Name = ../refined-set-2016/1m4h/1m4h_pocket.pdb
REMARK  293 active torsions:
REMARK  status: ('A' for Active; 'I' for Inactive)
REMARK    1  A    between atoms: _1  and  _3
REMARK    2  A    between atoms: _3  and  _4
REMARK    3  A    between atoms: _3  and  _6
REMARK    4  A    between atoms: _6  and  _7
REMARK    5  A    between atoms: _7  and  _8
REMARK    6  A    between atoms: _8  and  _9
REMARK    7  A    between atoms: _9  and  _10
REMARK    8  A    between atoms: _14  and  _16
REMARK    9  A    between atoms: _16  and  _17
REMARK   10  A    between atoms: _16  and  _19
REMARK   11  A    between atoms: _19  and  _20
REMARK   12  A    between atoms: _22  and  _24
REMARK   13  A    between atoms: _24  and  _25
REMARK   14  A    between atoms: _27  and  _29
REMARK   15  A    between atoms: _29  and  _30
REMARK   16  A    between atoms: _29  and  _32
REMARK   17  A    between atoms: _32  and  _33
REMARK   18  A    between atoms: _33  and  _34
REMARK   19  A    between atoms: _39  and  _41
REMARK   20  A    between atoms: _41  and  _42
REMARK   21  A    between atoms: _44  and  _46
REMARK   22  A    between atoms: _46  and  _47
REMARK   23  A    between atoms: _46  and  _49
REMARK   24  A    between atoms: _49  and  _50
REMARK   25  A    between atoms: _55  and  _56
REMARK   26  A    between atoms: _58  and  _60
REMARK   27  A    between atoms: _60  and  _61
REMARK   28  A    between atoms: _60  and  _63
REMARK   29  A    between atoms: _63  and  _64
REMARK   30  A    between atoms: _67  and  _69
REMARK   31  A    between atoms: _69  and  _70
REMARK   32  A    between atoms: _69  and  _72
REMARK   33  A    between atoms: _75  and  _77
REMARK   34  A    between atoms: _77  and  _78
REMARK   35  A    between atoms: _77  and  _80
REMARK   36  A    between atoms: _80  and  _81
REMARK   37  A    between atoms: _84  and  _86
REMARK   38  A    between atoms: _86  and  _87
REMARK   39  A    between atoms: _86  and  _89
REMARK   40  A    between atoms: _89  and  _90
REMARK   41  A    between atoms: _93  and  _95
REMARK   42  A    between atoms: _95  and  _96
REMARK   43  A    between atoms: _98  and  _100
REMARK   44  A    between atoms: _100  and  _101
REMARK   45  A    between atoms: _100  and  _103
REMARK   46  A    between atoms: _103  and  _104
REMARK   47  A    between atoms: _106  and  _108
REMARK   48  A    between atoms: _108  and  _109
REMARK   49  A    between atoms: _108  and  _111
REMARK   50  A    between atoms: _111  and  _112
REMARK   51  A    between atoms: _114  and  _116
REMARK   52  A    between atoms: _116  and  _117
REMARK   53  A    between atoms: _116  and  _119
REMARK   54  A    between atoms: _119  and  _120
REMARK   55  A    between atoms: _125  and  _127
REMARK   56  A    between atoms: _127  and  _128
REMARK   57  A    between atoms: _127  and  _130
REMARK   58  A    between atoms: _130  and  _131
REMARK   59  A    between atoms: _136  and  _137
REMARK   60  A    between atoms: _139  and  _141
REMARK   61  A    between atoms: _141  and  _142
REMARK   62  A    between atoms: _141  and  _144
REMARK   63  A    between atoms: _148  and  _149
REMARK   64  A    between atoms: _154  and  _156
REMARK   65  A    between atoms: _156  and  _157
REMARK   66  A    between atoms: _156  and  _159
REMARK   67  A    between atoms: _159  and  _160
REMARK   68  A    between atoms: _165  and  _166
REMARK   69  A    between atoms: _168  and  _170
REMARK   70  A    between atoms: _170  and  _171
REMARK   71  A    between atoms: _170  and  _173
REMARK   72  A    between atoms: _173  and  _174
REMARK   73  A    between atoms: _177  and  _179
REMARK   74  A    between atoms: _179  and  _180
REMARK   75  A    between atoms: _179  and  _182
REMARK   76  A    between atoms: _182  and  _183
REMARK   77  A    between atoms: _183  and  _184
REMARK   78  A    between atoms: _189  and  _191
REMARK   79  A    between atoms: _191  and  _192
REMARK   80  A    between atoms: _194  and  _196
REMARK   81  A    between atoms: _196  and  _197
REMARK   82  A    between atoms: _196  and  _199
REMARK   83  A    between atoms: _199  and  _200
REMARK   84  A    between atoms: _200  and  _201
REMARK   85  A    between atoms: _201  and  _202
REMARK   86  A    between atoms: _202  and  _203
REMARK   87  A    between atoms: _207  and  _209
REMARK   88  A    between atoms: _209  and  _210
REMARK   89  A    between atoms: _209  and  _212
REMARK   90  A    between atoms: _212  and  _213
REMARK   91  A    between atoms: _223  and  _225
REMARK   92  A    between atoms: _225  and  _226
REMARK   93  A    between atoms: _225  and  _228
REMARK   94  A    between atoms: _228  and  _229
REMARK   95  A    between atoms: _232  and  _234
REMARK   96  A    between atoms: _234  and  _235
REMARK   97  A    between atoms: _234  and  _237
REMARK   98  A    between atoms: _237  and  _238
REMARK   99  A    between atoms: _238  and  _239
REMARK  100  A    between atoms: _239  and  _240
REMARK  101  A    between atoms: _240  and  _241
REMARK  102  A    between atoms: _245  and  _247
REMARK  103  A    between atoms: _247  and  _248
REMARK  104  A    between atoms: _247  and  _250
REMARK  105  A    between atoms: _250  and  _251
REMARK  106  A    between atoms: _257  and  _259
REMARK  107  A    between atoms: _259  and  _260
REMARK  108  A    between atoms: _259  and  _262
REMARK  109  A    between atoms: _262  and  _263
REMARK  110  A    between atoms: _269  and  _271
REMARK  111  A    between atoms: _271  and  _272
REMARK  112  A    between atoms: _271  and  _274
REMARK  113  A    between atoms: _274  and  _275
REMARK  114  A    between atoms: _278  and  _280
REMARK  115  A    between atoms: _280  and  _281
REMARK  116  A    between atoms: _280  and  _283
REMARK  117  A    between atoms: _283  and  _284
REMARK  118  A    between atoms: _286  and  _288
REMARK  119  A    between atoms: _288  and  _289
REMARK  120  A    between atoms: _288  and  _291
REMARK  121  A    between atoms: _291  and  _292
REMARK  122  A    between atoms: _302  and  _304
REMARK  123  A    between atoms: _304  and  _305
REMARK  124  A    between atoms: _307  and  _309
REMARK  125  A    between atoms: _309  and  _310
REMARK  126  A    between atoms: _309  and  _312
REMARK  127  A    between atoms: _312  and  _313
REMARK  128  A    between atoms: _316  and  _318
REMARK  129  A    between atoms: _318  and  _319
REMARK  130  A    between atoms: _318  and  _321
REMARK  131  A    between atoms: _321  and  _322
REMARK  132  A    between atoms: _325  and  _327
REMARK  133  A    between atoms: _327  and  _328
REMARK  134  A    between atoms: _327  and  _330
REMARK  135  A    between atoms: _330  and  _331
REMARK  136  A    between atoms: _334  and  _336
REMARK  137  A    between atoms: _336  and  _337
REMARK  138  A    between atoms: _340  and  _342
REMARK  139  A    between atoms: _342  and  _343
REMARK  140  A    between atoms: _342  and  _345
REMARK  141  A    between atoms: _345  and  _346
REMARK  142  A    between atoms: _351  and  _352
REMARK  143  A    between atoms: _354  and  _356
REMARK  144  A    between atoms: _356  and  _357
REMARK  145  A    between atoms: _360  and  _362
REMARK  146  A    between atoms: _362  and  _363
REMARK  147  A    between atoms: _362  and  _365
REMARK  148  A    between atoms: _365  and  _366
REMARK  149  A    between atoms: _366  and  _367
REMARK  150  A    between atoms: _370  and  _372
REMARK  151  A    between atoms: _372  and  _373
REMARK  152  A    between atoms: _372  and  _375
REMARK  153  A    between atoms: _375  and  _376
REMARK  154  A    between atoms: _379  and  _381
REMARK  155  A    between atoms: _381  and  _382
REMARK  156  A    between atoms: _385  and  _387
REMARK  157  A    between atoms: _387  and  _388
REMARK  158  A    between atoms: _387  and  _390
REMARK  159  A    between atoms: _390  and  _391
REMARK  160  A    between atoms: _391  and  _392
REMARK  161  A    between atoms: _392  and  _393
REMARK  162  A    between atoms: _403  and  _404
REMARK  163  A    between atoms: _409  and  _411
REMARK  164  A    between atoms: _411  and  _412
REMARK  165  A    between atoms: _411  and  _414
REMARK  166  A    between atoms: _414  and  _415
REMARK  167  A    between atoms: _418  and  _420
REMARK  168  A    between atoms: _420  and  _421
REMARK  169  A    between atoms: _420  and  _423
REMARK  170  A    between atoms: _423  and  _424
REMARK  171  A    between atoms: _427  and  _429
REMARK  172  A    between atoms: _429  and  _430
REMARK  173  A    between atoms: _429  and  _432
REMARK  174  A    between atoms: _432  and  _433
REMARK  175  A    between atoms: _433  and  _434
REMARK  176  A    between atoms: _434  and  _435
REMARK  177  A    between atoms: _444  and  _446
REMARK  178  A    between atoms: _446  and  _447
REMARK  179  A    between atoms: _446  and  _449
REMARK  180  A    between atoms: _449  and  _450
REMARK  181  A    between atoms: _460  and  _462
REMARK  182  A    between atoms: _462  and  _463
REMARK  183  A    between atoms: _462  and  _465
REMARK  184  A    between atoms: _465  and  _466
REMARK  185  A    between atoms: _471  and  _472
REMARK  186  A    between atoms: _474  and  _476
REMARK  187  A    between atoms: _476  and  _477
REMARK  188  A    between atoms: _476  and  _479
REMARK  189  A    between atoms: _479  and  _480
REMARK  190  A    between atoms: _480  and  _481
REMARK  191  A    between atoms: _481  and  _482
REMARK  192  A    between atoms: _482  and  _483
REMARK  193  A    between atoms: _487  and  _489
REMARK  194  A    between atoms: _489  and  _490
REMARK  195  A    between atoms: _489  and  _492
REMARK  196  A    between atoms: _492  and  _493
REMARK  197  A    between atoms: _496  and  _498
REMARK  198  A    between atoms: _498  and  _499
REMARK  199  A    between atoms: _498  and  _501
REMARK  200  A    between atoms: _504  and  _506
REMARK  201  A    between atoms: _506  and  _507
REMARK  202  A    between atoms: _506  and  _509
REMARK  203  A    between atoms: _509  and  _510
REMARK  204  A    between atoms: _513  and  _515
REMARK  205  A    between atoms: _515  and  _516
REMARK  206  A    between atoms: _515  and  _518
REMARK  207  A    between atoms: _518  and  _519
REMARK  208  A    between atoms: _521  and  _523
REMARK  209  A    between atoms: _523  and  _524
REMARK  210  A    between atoms: _526  and  _528
REMARK  211  A    between atoms: _528  and  _529
REMARK  212  A    between atoms: _528  and  _531
REMARK  213  A    between atoms: _531  and  _532
REMARK  214  A    between atoms: _535  and  _537
REMARK  215  A    between atoms: _537  and  _538
REMARK  216  A    between atoms: _537  and  _540
REMARK  217  A    between atoms: _540  and  _541
REMARK  218  A    between atoms: _544  and  _546
REMARK  219  A    between atoms: _546  and  _547
REMARK  220  A    between atoms: _546  and  _549
REMARK  221  A    between atoms: _549  and  _550
REMARK  222  A    between atoms: _555  and  _557
REMARK  223  A    between atoms: _557  and  _558
REMARK  224  A    between atoms: _557  and  _560
REMARK  225  A    between atoms: _560  and  _561
REMARK  226  A    between atoms: _564  and  _566
REMARK  227  A    between atoms: _566  and  _567
REMARK  228  A    between atoms: _566  and  _569
REMARK  229  A    between atoms: _569  and  _570
REMARK  230  A    between atoms: _570  and  _571
REMARK  231  A    between atoms: _571  and  _572
REMARK  232  A    between atoms: _581  and  _583
REMARK  233  A    between atoms: _583  and  _584
REMARK  234  A    between atoms: _586  and  _588
REMARK  235  A    between atoms: _588  and  _589
REMARK  236  A    between atoms: _588  and  _591
REMARK  237  A    between atoms: _591  and  _592
REMARK  238  A    between atoms: _592  and  _593
REMARK  239  A    between atoms: _596  and  _598
REMARK  240  A    between atoms: _598  and  _599
REMARK  241  A    between atoms: _598  and  _601
REMARK  242  A    between atoms: _601  and  _602
REMARK  243  A    between atoms: _602  and  _603
REMARK  244  A    between atoms: _603  and  _604
REMARK  245  A    between atoms: _614  and  _615
REMARK  246  A    between atoms: _620  and  _622
REMARK  247  A    between atoms: _622  and  _623
REMARK  248  A    between atoms: _622  and  _625
REMARK  249  A    between atoms: _628  and  _630
REMARK  250  A    between atoms: _630  and  _631
REMARK  251  A    between atoms: _630  and  _633
REMARK  252  A    between atoms: _633  and  _634
REMARK  253  A    between atoms: _634  and  _635
REMARK  254  A    between atoms: _638  and  _640
REMARK  255  A    between atoms: _640  and  _641
REMARK  256  A    between atoms: _640  and  _643
REMARK  257  A    between atoms: _643  and  _644
REMARK  258  A    between atoms: _644  and  _645
REMARK  259  A    between atoms: _645  and  _646
REMARK  260  A    between atoms: _646  and  _647
REMARK  261  A    between atoms: _651  and  _653
REMARK  262  A    between atoms: _653  and  _654
REMARK  263  A    between atoms: _657  and  _659
REMARK  264  A    between atoms: _659  and  _660
REMARK  265  A    between atoms: _659  and  _662
REMARK  266  A    between atoms: _662  and  _663
REMARK  267  A    between atoms: _665  and  _667
REMARK  268  A    between atoms: _667  and  _668
REMARK  269  A    between atoms: _667  and  _670
REMARK  270  A    between atoms: _670  and  _671
REMARK  271  A    between atoms: _671  and  _672
REMARK  272  A    between atoms: _677  and  _679
REMARK  273  A    between atoms: _679  and  _680
REMARK  274  A    between atoms: _679  and  _682
REMARK  275  A    between atoms: _682  and  _683
REMARK  276  A    between atoms: _685  and  _687
REMARK  277  A    between atoms: _687  and  _688
REMARK  278  A    between atoms: _687  and  _690
REMARK  279  A    between atoms: _690  and  _691
REMARK  280  A    between atoms: _694  and  _696
REMARK  281  A    between atoms: _696  and  _697
REMARK  282  A    between atoms: _696  and  _699
REMARK  283  A    between atoms: _699  and  _700
REMARK  284  A    between atoms: _703  and  _705
REMARK  285  A    between atoms: _705  and  _706
REMARK  286  A    between atoms: _705  and  _708
REMARK  287  A    between atoms: _711  and  _713
REMARK  288  A    between atoms: _713  and  _714
REMARK  289  A    between atoms: _716  and  _718
REMARK  290  A    between atoms: _718  and  _719
REMARK  291  A    between atoms: _722  and  _724
REMARK  292  A    between atoms: _724  and  _725
REMARK  293  A    between atoms: _724  and  _727
REMARK                            x       y       z     vdW  Elec       q    Type
REMARK                         _______ _______ _______ _____ _____    ______ ____
ROOT
ATOM      1  O   HOH     1      23.416  25.544  19.016  0.00  0.00    +0.000 OA
ENDROOT
TORSDOF 0
REMARK  Name = ../refined-set-2016/1m4h/1m4h_pocket.pdb
REMARK  293 active torsions:
REMARK  status: ('A' for Active; 'I' for Inactive)
REMARK    1  A    between atoms: _1  and  _3
REMARK    2  A    between atoms: _3  and  _4
REMARK    3  A    between atoms: _3  and  _6
REMARK    4  A    between atoms: _6  and  _7
REMARK    5  A    between atoms: _7  and  _8
REMARK    6  A    between atoms: _8  and  _9
REMARK    7  A    between atoms: _9  and  _10
REMARK    8  A    between atoms: _14  and  _16
REMARK    9  A    between atoms: _16  and  _17
REMARK   10  A    between atoms: _16  and  _19
REMARK   11  A    between atoms: _19  and  _20
REMARK   12  A    between atoms: _22  and  _24
REMARK   13  A    between atoms: _24  and  _25
REMARK   14  A    between atoms: _27  and  _29
REMARK   15  A    between atoms: _29  and  _30
REMARK   16  A    between atoms: _29  and  _32
REMARK   17  A    between atoms: _32  and  _33
REMARK   18  A    between atoms: _33  and  _34
REMARK   19  A    between atoms: _39  and  _41
REMARK   20  A    between atoms: _41  and  _42
REMARK   21  A    between atoms: _44  and  _46
REMARK   22  A    between atoms: _46  and  _47
REMARK   23  A    between atoms: _46  and  _49
REMARK   24  A    between atoms: _49  and  _50
REMARK   25  A    between atoms: _55  and  _56
REMARK   26  A    between atoms: _58  and  _60
REMARK   27  A    between atoms: _60  and  _61
REMARK   28  A    between atoms: _60  and  _63
REMARK   29  A    between atoms: _63  and  _64
REMARK   30  A    between atoms: _67  and  _69
REMARK   31  A    between atoms: _69  and  _70
REMARK   32  A    between atoms: _69  and  _72
REMARK   33  A    between atoms: _75  and  _77
REMARK   34  A    between atoms: _77  and  _78
REMARK   35  A    between atoms: _77  and  _80
REMARK   36  A    between atoms: _80  and  _81
REMARK   37  A    between atoms: _84  and  _86
REMARK   38  A    between atoms: _86  and  _87
REMARK   39  A    between atoms: _86  and  _89
REMARK   40  A    between atoms: _89  and  _90
REMARK   41  A    between atoms: _93  and  _95
REMARK   42  A    between atoms: _95  and  _96
REMARK   43  A    between atoms: _98  and  _100
REMARK   44  A    between atoms: _100  and  _101
REMARK   45  A    between atoms: _100  and  _103
REMARK   46  A    between atoms: _103  and  _104
REMARK   47  A    between atoms: _106  and  _108
REMARK   48  A    between atoms: _108  and  _109
REMARK   49  A    between atoms: _108  and  _111
REMARK   50  A    between atoms: _111  and  _112
REMARK   51  A    between atoms: _114  and  _116
REMARK   52  A    between atoms: _116  and  _117
REMARK   53  A    between atoms: _116  and  _119
REMARK   54  A    between atoms: _119  and  _120
REMARK   55  A    between atoms: _125  and  _127
REMARK   56  A    between atoms: _127  and  _128
REMARK   57  A    between atoms: _127  and  _130
REMARK   58  A    between atoms: _130  and  _131
REMARK   59  A    between atoms: _136  and  _137
REMARK   60  A    between atoms: _139  and  _141
REMARK   61  A    between atoms: _141  and  _142
REMARK   62  A    between atoms: _141  and  _144
REMARK   63  A    between atoms: _148  and  _149
REMARK   64  A    between atoms: _154  and  _156
REMARK   65  A    between atoms: _156  and  _157
REMARK   66  A    between atoms: _156  and  _159
REMARK   67  A    between atoms: _159  and  _160
REMARK   68  A    between atoms: _165  and  _166
REMARK   69  A    between atoms: _168  and  _170
REMARK   70  A    between atoms: _170  and  _171
REMARK   71  A    between atoms: _170  and  _173
REMARK   72  A    between atoms: _173  and  _174
REMARK   73  A    between atoms: _177  and  _179
REMARK   74  A    between atoms: _179  and  _180
REMARK   75  A    between atoms: _179  and  _182
REMARK   76  A    between atoms: _182  and  _183
REMARK   77  A    between atoms: _183  and  _184
REMARK   78  A    between atoms: _189  and  _191
REMARK   79  A    between atoms: _191  and  _192
REMARK   80  A    between atoms: _194  and  _196
REMARK   81  A    between atoms: _196  and  _197
REMARK   82  A    between atoms: _196  and  _199
REMARK   83  A    between atoms: _199  and  _200
REMARK   84  A    between atoms: _200  and  _201
REMARK   85  A    between atoms: _201  and  _202
REMARK   86  A    between atoms: _202  and  _203
REMARK   87  A    between atoms: _207  and  _209
REMARK   88  A    between atoms: _209  and  _210
REMARK   89  A    between atoms: _209  and  _212
REMARK   90  A    between atoms: _212  and  _213
REMARK   91  A    between atoms: _223  and  _225
REMARK   92  A    between atoms: _225  and  _226
REMARK   93  A    between atoms: _225  and  _228
REMARK   94  A    between atoms: _228  and  _229
REMARK   95  A    between atoms: _232  and  _234
REMARK   96  A    between atoms: _234  and  _235
REMARK   97  A    between atoms: _234  and  _237
REMARK   98  A    between atoms: _237  and  _238
REMARK   99  A    between atoms: _238  and  _239
REMARK  100  A    between atoms: _239  and  _240
REMARK  101  A    between atoms: _240  and  _241
REMARK  102  A    between atoms: _245  and  _247
REMARK  103  A    between atoms: _247  and  _248
REMARK  104  A    between atoms: _247  and  _250
REMARK  105  A    between atoms: _250  and  _251
REMARK  106  A    between atoms: _257  and  _259
REMARK  107  A    between atoms: _259  and  _260
REMARK  108  A    between atoms: _259  and  _262
REMARK  109  A    between atoms: _262  and  _263
REMARK  110  A    between atoms: _269  and  _271
REMARK  111  A    between atoms: _271  and  _272
REMARK  112  A    between atoms: _271  and  _274
REMARK  113  A    between atoms: _274  and  _275
REMARK  114  A    between atoms: _278  and  _280
REMARK  115  A    between atoms: _280  and  _281
REMARK  116  A    between atoms: _280  and  _283
REMARK  117  A    between atoms: _283  and  _284
REMARK  118  A    between atoms: _286  and  _288
REMARK  119  A    between atoms: _288  and  _289
REMARK  120  A    between atoms: _288  and  _291
REMARK  121  A    between atoms: _291  and  _292
REMARK  122  A    between atoms: _302  and  _304
REMARK  123  A    between atoms: _304  and  _305
REMARK  124  A    between atoms: _307  and  _309
REMARK  125  A    between atoms: _309  and  _310
REMARK  126  A    between atoms: _309  and  _312
REMARK  127  A    between atoms: _312  and  _313
REMARK  128  A    between atoms: _316  and  _318
REMARK  129  A    between atoms: _318  and  _319
REMARK  130  A    between atoms: _318  and  _321
REMARK  131  A    between atoms: _321  and  _322
REMARK  132  A    between atoms: _325  and  _327
REMARK  133  A    between atoms: _327  and  _328
REMARK  134  A    between atoms: _327  and  _330
REMARK  135  A    between atoms: _330  and  _331
REMARK  136  A    between atoms: _334  and  _336
REMARK  137  A    between atoms: _336  and  _337
REMARK  138  A    between atoms: _340  and  _342
REMARK  139  A    between atoms: _342  and  _343
REMARK  140  A    between atoms: _342  and  _345
REMARK  141  A    between atoms: _345  and  _346
REMARK  142  A    between atoms: _351  and  _352
REMARK  143  A    between atoms: _354  and  _356
REMARK  144  A    between atoms: _356  and  _357
REMARK  145  A    between atoms: _360  and  _362
REMARK  146  A    between atoms: _362  and  _363
REMARK  147  A    between atoms: _362  and  _365
REMARK  148  A    between atoms: _365  and  _366
REMARK  149  A    between atoms: _366  and  _367
REMARK  150  A    between atoms: _370  and  _372
REMARK  151  A    between atoms: _372  and  _373
REMARK  152  A    between atoms: _372  and  _375
REMARK  153  A    between atoms: _375  and  _376
REMARK  154  A    between atoms: _379  and  _381
REMARK  155  A    between atoms: _381  and  _382
REMARK  156  A    between atoms: _385  and  _387
REMARK  157  A    between atoms: _387  and  _388
REMARK  158  A    between atoms: _387  and  _390
REMARK  159  A    between atoms: _390  and  _391
REMARK  160  A    between atoms: _391  and  _392
REMARK  161  A    between atoms: _392  and  _393
REMARK  162  A    between atoms: _403  and  _404
REMARK  163  A    between atoms: _409  and  _411
REMARK  164  A    between atoms: _411  and  _412
REMARK  165  A    between atoms: _411  and  _414
REMARK  166  A    between atoms: _414  and  _415
REMARK  167  A    between atoms: _418  and  _420
REMARK  168  A    between atoms: _420  and  _421
REMARK  169  A    between atoms: _420  and  _423
REMARK  170  A    between atoms: _423  and  _424
REMARK  171  A    between atoms: _427  and  _429
REMARK  172  A    between atoms: _429  and  _430
REMARK  173  A    between atoms: _429  and  _432
REMARK  174  A    between atoms: _432  and  _433
REMARK  175  A    between atoms: _433  and  _434
REMARK  176  A    between atoms: _434  and  _435
REMARK  177  A    between atoms: _444  and  _446
REMARK  178  A    between atoms: _446  and  _447
REMARK  179  A    between atoms: _446  and  _449
REMARK  180  A    between atoms: _449  and  _450
REMARK  181  A    between atoms: _460  and  _462
REMARK  182  A    between atoms: _462  and  _463
REMARK  183  A    between atoms: _462  and  _465
REMARK  184  A    between atoms: _465  and  _466
REMARK  185  A    between atoms: _471  and  _472
REMARK  186  A    between atoms: _474  and  _476
REMARK  187  A    between atoms: _476  and  _477
REMARK  188  A    between atoms: _476  and  _479
REMARK  189  A    between atoms: _479  and  _480
REMARK  190  A    between atoms: _480  and  _481
REMARK  191  A    between atoms: _481  and  _482
REMARK  192  A    between atoms: _482  and  _483
REMARK  193  A    between atoms: _487  and  _489
REMARK  194  A    between atoms: _489  and  _490
REMARK  195  A    between atoms: _489  and  _492
REMARK  196  A    between atoms: _492  and  _493
REMARK  197  A    between atoms: _496  and  _498
REMARK  198  A    between atoms: _498  and  _499
REMARK  199  A    between atoms: _498  and  _501
REMARK  200  A    between atoms: _504  and  _506
REMARK  201  A    between atoms: _506  and  _507
REMARK  202  A    between atoms: _506  and  _509
REMARK  203  A    between atoms: _509  and  _510
REMARK  204  A    between atoms: _513  and  _515
REMARK  205  A    between atoms: _515  and  _516
REMARK  206  A    between atoms: _515  and  _518
REMARK  207  A    between atoms: _518  and  _519
REMARK  208  A    between atoms: _521  and  _523
REMARK  209  A    between atoms: _523  and  _524
REMARK  210  A    between atoms: _526  and  _528
REMARK  211  A    between atoms: _528  and  _529
REMARK  212  A    between atoms: _528  and  _531
REMARK  213  A    between atoms: _531  and  _532
REMARK  214  A    between atoms: _535  and  _537
REMARK  215  A    between atoms: _537  and  _538
REMARK  216  A    between atoms: _537  and  _540
REMARK  217  A    between atoms: _540  and  _541
REMARK  218  A    between atoms: _544  and  _546
REMARK  219  A    between atoms: _546  and  _547
REMARK  220  A    between atoms: _546  and  _549
REMARK  221  A    between atoms: _549  and  _550
REMARK  222  A    between atoms: _555  and  _557
REMARK  223  A    between atoms: _557  and  _558
REMARK  224  A    between atoms: _557  and  _560
REMARK  225  A    between atoms: _560  and  _561
REMARK  226  A    between atoms: _564  and  _566
REMARK  227  A    between atoms: _566  and  _567
REMARK  228  A    between atoms: _566  and  _569
REMARK  229  A    between atoms: _569  and  _570
REMARK  230  A    between atoms: _570  and  _571
REMARK  231  A    between atoms: _571  and  _572
REMARK  232  A    between atoms: _581  and  _583
REMARK  233  A    between atoms: _583  and  _584
REMARK  234  A    between atoms: _586  and  _588
REMARK  235  A    between atoms: _588  and  _589
REMARK  236  A    between atoms: _588  and  _591
REMARK  237  A    between atoms: _591  and  _592
REMARK  238  A    between atoms: _592  and  _593
REMARK  239  A    between atoms: _596  and  _598
REMARK  240  A    between atoms: _598  and  _599
REMARK  241  A    between atoms: _598  and  _601
REMARK  242  A    between atoms: _601  and  _602
REMARK  243  A    between atoms: _602  and  _603
REMARK  244  A    between atoms: _603  and  _604
REMARK  245  A    between atoms: _614  and  _615
REMARK  246  A    between atoms: _620  and  _622
REMARK  247  A    between atoms: _622  and  _623
REMARK  248  A    between atoms: _622  and  _625
REMARK  249  A    between atoms: _628  and  _630
REMARK  250  A    between atoms: _630  and  _631
REMARK  251  A    between atoms: _630  and  _633
REMARK  252  A    between atoms: _633  and  _634
REMARK  253  A    between atoms: _634  and  _635
REMARK  254  A    between atoms: _638  and  _640
REMARK  255  A    between atoms: _640  and  _641
REMARK  256  A    between atoms: _640  and  _643
REMARK  257  A    between atoms: _643  and  _644
REMARK  258  A    between atoms: _644  and  _645
REMARK  259  A    between atoms: _645  and  _646
REMARK  260  A    between atoms: _646  and  _647
REMARK  261  A    between atoms: _651  and  _653
REMARK  262  A    between atoms: _653  and  _654
REMARK  263  A    between atoms: _657  and  _659
REMARK  264  A    between atoms: _659  and  _660
REMARK  265  A    between atoms: _659  and  _662
REMARK  266  A    between atoms: _662  and  _663
REMARK  267  A    between atoms: _665  and  _667
REMARK  268  A    between atoms: _667  and  _668
REMARK  269  A    between atoms: _667  and  _670
REMARK  270  A    between atoms: _670  and  _671
REMARK  271  A    between atoms: _671  and  _672
REMARK  272  A    between atoms: _677  and  _679
REMARK  273  A    between atoms: _679  and  _680
REMARK  274  A    between atoms: _679  and  _682
REMARK  275  A    between atoms: _682  and  _683
REMARK  276  A    between atoms: _685  and  _687
REMARK  277  A    between atoms: _687  and  _688
REMARK  278  A    between atoms: _687  and  _690
REMARK  279  A    between atoms: _690  and  _691
REMARK  280  A    between atoms: _694  and  _696
REMARK  281  A    between atoms: _696  and  _697
REMARK  282  A    between atoms: _696  and  _699
REMARK  283  A    between atoms: _699  and  _700
REMARK  284  A    between atoms: _703  and  _705
REMARK  285  A    between atoms: _705  and  _706
REMARK  286  A    between atoms: _705  and  _708
REMARK  287  A    between atoms: _711  and  _713
REMARK  288  A    between atoms: _713  and  _714
REMARK  289  A    between atoms: _716  and  _718
REMARK  290  A    between atoms: _718  and  _719
REMARK  291  A    between atoms: _722  and  _724
REMARK  292  A    between atoms: _724  and  _725
REMARK  293  A    between atoms: _724  and  _727
REMARK                            x       y       z     vdW  Elec       q    Type
REMARK                         _______ _______ _______ _____ _____    ______ ____
ROOT
ATOM      1  O   HOH     1       3.108  31.642  21.102  0.00  0.00    +0.000 OA
ENDROOT
TORSDOF 0
REMARK  Name = ../refined-set-2016/1m4h/1m4h_pocket.pdb
REMARK  293 active torsions:
REMARK  status: ('A' for Active; 'I' for Inactive)
REMARK    1  A    between atoms: _1  and  _3
REMARK    2  A    between atoms: _3  and  _4
REMARK    3  A    between atoms: _3  and  _6
REMARK    4  A    between atoms: _6  and  _7
REMARK    5  A    between atoms: _7  and  _8
REMARK    6  A    between atoms: _8  and  _9
REMARK    7  A    between atoms: _9  and  _10
REMARK    8  A    between atoms: _14  and  _16
REMARK    9  A    between atoms: _16  and  _17
REMARK   10  A    between atoms: _16  and  _19
REMARK   11  A    between atoms: _19  and  _20
REMARK   12  A    between atoms: _22  and  _24
REMARK   13  A    between atoms: _24  and  _25
REMARK   14  A    between atoms: _27  and  _29
REMARK   15  A    between atoms: _29  and  _30
REMARK   16  A    between atoms: _29  and  _32
REMARK   17  A    between atoms: _32  and  _33
REMARK   18  A    between atoms: _33  and  _34
REMARK   19  A    between atoms: _39  and  _41
REMARK   20  A    between atoms: _41  and  _42
REMARK   21  A    between atoms: _44  and  _46
REMARK   22  A    between atoms: _46  and  _47
REMARK   23  A    between atoms: _46  and  _49
REMARK   24  A    between atoms: _49  and  _50
REMARK   25  A    between atoms: _55  and  _56
REMARK   26  A    between atoms: _58  and  _60
REMARK   27  A    between atoms: _60  and  _61
REMARK   28  A    between atoms: _60  and  _63
REMARK   29  A    between atoms: _63  and  _64
REMARK   30  A    between atoms: _67  and  _69
REMARK   31  A    between atoms: _69  and  _70
REMARK   32  A    between atoms: _69  and  _72
REMARK   33  A    between atoms: _75  and  _77
REMARK   34  A    between atoms: _77  and  _78
REMARK   35  A    between atoms: _77  and  _80
REMARK   36  A    between atoms: _80  and  _81
REMARK   37  A    between atoms: _84  and  _86
REMARK   38  A    between atoms: _86  and  _87
REMARK   39  A    between atoms: _86  and  _89
REMARK   40  A    between atoms: _89  and  _90
REMARK   41  A    between atoms: _93  and  _95
REMARK   42  A    between atoms: _95  and  _96
REMARK   43  A    between atoms: _98  and  _100
REMARK   44  A    between atoms: _100  and  _101
REMARK   45  A    between atoms: _100  and  _103
REMARK   46  A    between atoms: _103  and  _104
REMARK   47  A    between atoms: _106  and  _108
REMARK   48  A    between atoms: _108  and  _109
REMARK   49  A    between atoms: _108  and  _111
REMARK   50  A    between atoms: _111  and  _112
REMARK   51  A    between atoms: _114  and  _116
REMARK   52  A    between atoms: _116  and  _117
REMARK   53  A    between atoms: _116  and  _119
REMARK   54  A    between atoms: _119  and  _120
REMARK   55  A    between atoms: _125  and  _127
REMARK   56  A    between atoms: _127  and  _128
REMARK   57  A    between atoms: _127  and  _130
REMARK   58  A    between atoms: _130  and  _131
REMARK   59  A    between atoms: _136  and  _137
REMARK   60  A    between atoms: _139  and  _141
REMARK   61  A    between atoms: _141  and  _142
REMARK   62  A    between atoms: _141  and  _144
REMARK   63  A    between atoms: _148  and  _149
REMARK   64  A    between atoms: _154  and  _156
REMARK   65  A    between atoms: _156  and  _157
REMARK   66  A    between atoms: _156  and  _159
REMARK   67  A    between atoms: _159  and  _160
REMARK   68  A    between atoms: _165  and  _166
REMARK   69  A    between atoms: _168  and  _170
REMARK   70  A    between atoms: _170  and  _171
REMARK   71  A    between atoms: _170  and  _173
REMARK   72  A    between atoms: _173  and  _174
REMARK   73  A    between atoms: _177  and  _179
REMARK   74  A    between atoms: _179  and  _180
REMARK   75  A    between atoms: _179  and  _182
REMARK   76  A    between atoms: _182  and  _183
REMARK   77  A    between atoms: _183  and  _184
REMARK   78  A    between atoms: _189  and  _191
REMARK   79  A    between atoms: _191  and  _192
REMARK   80  A    between atoms: _194  and  _196
REMARK   81  A    between atoms: _196  and  _197
REMARK   82  A    between atoms: _196  and  _199
REMARK   83  A    between atoms: _199  and  _200
REMARK   84  A    between atoms: _200  and  _201
REMARK   85  A    between atoms: _201  and  _202
REMARK   86  A    between atoms: _202  and  _203
REMARK   87  A    between atoms: _207  and  _209
REMARK   88  A    between atoms: _209  and  _210
REMARK   89  A    between atoms: _209  and  _212
REMARK   90  A    between atoms: _212  and  _213
REMARK   91  A    between atoms: _223  and  _225
REMARK   92  A    between atoms: _225  and  _226
REMARK   93  A    between atoms: _225  and  _228
REMARK   94  A    between atoms: _228  and  _229
REMARK   95  A    between atoms: _232  and  _234
REMARK   96  A    between atoms: _234  and  _235
REMARK   97  A    between atoms: _234  and  _237
REMARK   98  A    between atoms: _237  and  _238
REMARK   99  A    between atoms: _238  and  _239
REMARK  100  A    between atoms: _239  and  _240
REMARK  101  A    between atoms: _240  and  _241
REMARK  102  A    between atoms: _245  and  _247
REMARK  103  A    between atoms: _247  and  _248
REMARK  104  A    between atoms: _247  and  _250
REMARK  105  A    between atoms: _250  and  _251
REMARK  106  A    between atoms: _257  and  _259
REMARK  107  A    between atoms: _259  and  _260
REMARK  108  A    between atoms: _259  and  _262
REMARK  109  A    between atoms: _262  and  _263
REMARK  110  A    between atoms: _269  and  _271
REMARK  111  A    between atoms: _271  and  _272
REMARK  112  A    between atoms: _271  and  _274
REMARK  113  A    between atoms: _274  and  _275
REMARK  114  A    between atoms: _278  and  _280
REMARK  115  A    between atoms: _280  and  _281
REMARK  116  A    between atoms: _280  and  _283
REMARK  117  A    between atoms: _283  and  _284
REMARK  118  A    between atoms: _286  and  _288
REMARK  119  A    between atoms: _288  and  _289
REMARK  120  A    between atoms: _288  and  _291
REMARK  121  A    between atoms: _291  and  _292
REMARK  122  A    between atoms: _302  and  _304
REMARK  123  A    between atoms: _304  and  _305
REMARK  124  A    between atoms: _307  and  _309
REMARK  125  A    between atoms: _309  and  _310
REMARK  126  A    between atoms: _309  and  _312
REMARK  127  A    between atoms: _312  and  _313
REMARK  128  A    between atoms: _316  and  _318
REMARK  129  A    between atoms: _318  and  _319
REMARK  130  A    between atoms: _318  and  _321
REMARK  131  A    between atoms: _321  and  _322
REMARK  132  A    between atoms: _325  and  _327
REMARK  133  A    between atoms: _327  and  _328
REMARK  134  A    between atoms: _327  and  _330
REMARK  135  A    between atoms: _330  and  _331
REMARK  136  A    between atoms: _334  and  _336
REMARK  137  A    between atoms: _336  and  _337
REMARK  138  A    between atoms: _340  and  _342
REMARK  139  A    between atoms: _342  and  _343
REMARK  140  A    between atoms: _342  and  _345
REMARK  141  A    between atoms: _345  and  _346
REMARK  142  A    between atoms: _351  and  _352
REMARK  143  A    between atoms: _354  and  _356
REMARK  144  A    between atoms: _356  and  _357
REMARK  145  A    between atoms: _360  and  _362
REMARK  146  A    between atoms: _362  and  _363
REMARK  147  A    between atoms: _362  and  _365
REMARK  148  A    between atoms: _365  and  _366
REMARK  149  A    between atoms: _366  and  _367
REMARK  150  A    between atoms: _370  and  _372
REMARK  151  A    between atoms: _372  and  _373
REMARK  152  A    between atoms: _372  and  _375
REMARK  153  A    between atoms: _375  and  _376
REMARK  154  A    between atoms: _379  and  _381
REMARK  155  A    between atoms: _381  and  _382
REMARK  156  A    between atoms: _385  and  _387
REMARK  157  A    between atoms: _387  and  _388
REMARK  158  A    between atoms: _387  and  _390
REMARK  159  A    between atoms: _390  and  _391
REMARK  160  A    between atoms: _391  and  _392
REMARK  161  A    between atoms: _392  and  _393
REMARK  162  A    between atoms: _403  and  _404
REMARK  163  A    between atoms: _409  and  _411
REMARK  164  A    between atoms: _411  and  _412
REMARK  165  A    between atoms: _411  and  _414
REMARK  166  A    between atoms: _414  and  _415
REMARK  167  A    between atoms: _418  and  _420
REMARK  168  A    between atoms: _420  and  _421
REMARK  169  A    between atoms: _420  and  _423
REMARK  170  A    between atoms: _423  and  _424
REMARK  171  A    between atoms: _427  and  _429
REMARK  172  A    between atoms: _429  and  _430
REMARK  173  A    between atoms: _429  and  _432
REMARK  174  A    between atoms: _432  and  _433
REMARK  175  A    between atoms: _433  and  _434
REMARK  176  A    between atoms: _434  and  _435
REMARK  177  A    between atoms: _444  and  _446
REMARK  178  A    between atoms: _446  and  _447
REMARK  179  A    between atoms: _446  and  _449
REMARK  180  A    between atoms: _449  and  _450
REMARK  181  A    between atoms: _460  and  _462
REMARK  182  A    between atoms: _462  and  _463
REMARK  183  A    between atoms: _462  and  _465
REMARK  184  A    between atoms: _465  and  _466
REMARK  185  A    between atoms: _471  and  _472
REMARK  186  A    between atoms: _474  and  _476
REMARK  187  A    between atoms: _476  and  _477
REMARK  188  A    between atoms: _476  and  _479
REMARK  189  A    between atoms: _479  and  _480
REMARK  190  A    between atoms: _480  and  _481
REMARK  191  A    between atoms: _481  and  _482
REMARK  192  A    between atoms: _482  and  _483
REMARK  193  A    between atoms: _487  and  _489
REMARK  194  A    between atoms: _489  and  _490
REMARK  195  A    between atoms: _489  and  _492
REMARK  196  A    between atoms: _492  and  _493
REMARK  197  A    between atoms: _496  and  _498
REMARK  198  A    between atoms: _498  and  _499
REMARK  199  A    between atoms: _498  and  _501
REMARK  200  A    between atoms: _504  and  _506
REMARK  201  A    between atoms: _506  and  _507
REMARK  202  A    between atoms: _506  and  _509
REMARK  203  A    between atoms: _509  and  _510
REMARK  204  A    between atoms: _513  and  _515
REMARK  205  A    between atoms: _515  and  _516
REMARK  206  A    between atoms: _515  and  _518
REMARK  207  A    between atoms: _518  and  _519
REMARK  208  A    between atoms: _521  and  _523
REMARK  209  A    between atoms: _523  and  _524
REMARK  210  A    between atoms: _526  and  _528
REMARK  211  A    between atoms: _528  and  _529
REMARK  212  A    between atoms: _528  and  _531
REMARK  213  A    between atoms: _531  and  _532
REMARK  214  A    between atoms: _535  and  _537
REMARK  215  A    between atoms: _537  and  _538
REMARK  216  A    between atoms: _537  and  _540
REMARK  217  A    between atoms: _540  and  _541
REMARK  218  A    between atoms: _544  and  _546
REMARK  219  A    between atoms: _546  and  _547
REMARK  220  A    between atoms: _546  and  _549
REMARK  221  A    between atoms: _549  and  _550
REMARK  222  A    between atoms: _555  and  _557
REMARK  223  A    between atoms: _557  and  _558
REMARK  224  A    between atoms: _557  and  _560
REMARK  225  A    between atoms: _560  and  _561
REMARK  226  A    between atoms: _564  and  _566
REMARK  227  A    between atoms: _566  and  _567
REMARK  228  A    between atoms: _566  and  _569
REMARK  229  A    between atoms: _569  and  _570
REMARK  230  A    between atoms: _570  and  _571
REMARK  231  A    between atoms: _571  and  _572
REMARK  232  A    between atoms: _581  and  _583
REMARK  233  A    between atoms: _583  and  _584
REMARK  234  A    between atoms: _586  and  _588
REMARK  235  A    between atoms: _588  and  _589
REMARK  236  A    between atoms: _588  and  _591
REMARK  237  A    between atoms: _591  and  _592
REMARK  238  A    between atoms: _592  and  _593
REMARK  239  A    between atoms: _596  and  _598
REMARK  240  A    between atoms: _598  and  _599
REMARK  241  A    between atoms: _598  and  _601
REMARK  242  A    between atoms: _601  and  _602
REMARK  243  A    between atoms: _602  and  _603
REMARK  244  A    between atoms: _603  and  _604
REMARK  245  A    between atoms: _614  and  _615
REMARK  246  A    between atoms: _620  and  _622
REMARK  247  A    between atoms: _622  and  _623
REMARK  248  A    between atoms: _622  and  _625
REMARK  249  A    between atoms: _628  and  _630
REMARK  250  A    between atoms: _630  and  _631
REMARK  251  A    between atoms: _630  and  _633
REMARK  252  A    between atoms: _633  and  _634
REMARK  253  A    between atoms: _634  and  _635
REMARK  254  A    between atoms: _638  and  _640
REMARK  255  A    between atoms: _640  and  _641
REMARK  256  A    between atoms: _640  and  _643
REMARK  257  A    between atoms: _643  and  _644
REMARK  258  A    between atoms: _644  and  _645
REMARK  259  A    between atoms: _645  and  _646
REMARK  260  A    between atoms: _646  and  _647
REMARK  261  A    between atoms: _651  and  _653
REMARK  262  A    between atoms: _653  and  _654
REMARK  263  A    between atoms: _657  and  _659
REMARK  264  A    between atoms: _659  and  _660
REMARK  265  A    between atoms: _659  and  _662
REMARK  266  A    between atoms: _662  and  _663
REMARK  267  A    between atoms: _665  and  _667
REMARK  268  A    between atoms: _667  and  _668
REMARK  269  A    between atoms: _667  and  _670
REMARK  270  A    between atoms: _670  and  _671
REMARK  271  A    between atoms: _671  and  _672
REMARK  272  A    between atoms: _677  and  _679
REMARK  273  A    between atoms: _679  and  _680
REMARK  274  A    between atoms: _679  and  _682
REMARK  275  A    between atoms: _682  and  _683
REMARK  276  A    between atoms: _685  and  _687
REMARK  277  A    between atoms: _687  and  _688
REMARK  278  A    between atoms: _687  and  _690
REMARK  279  A    between atoms: _690  and  _691
REMARK  280  A    between atoms: _694  and  _696
REMARK  281  A    between atoms: _696  and  _697
REMARK  282  A    between atoms: _696  and  _699
REMARK  283  A    between atoms: _699  and  _700
REMARK  284  A    between atoms: _703  and  _705
REMARK  285  A    between atoms: _705  and  _706
REMARK  286  A    between atoms: _705  and  _708
REMARK  287  A    between atoms: _711  and  _713
REMARK  288  A    between atoms: _713  and  _714
REMARK  289  A    between atoms: _716  and  _718
REMARK  290  A    between atoms: _718  and  _719
REMARK  291  A    between atoms: _722  and  _724
REMARK  292  A    between atoms: _724  and  _725
REMARK  293  A    between atoms: _724  and  _727
REMARK                            x       y       z     vdW  Elec       q    Type
REMARK                         _______ _______ _______ _____ _____    ______ ____
ROOT
ATOM      1  O   HOH     1      25.500  26.512  20.188  0.00  0.00    +0.000 OA
ENDROOT
TORSDOF 0
REMARK  Name = ../refined-set-2016/1m4h/1m4h_pocket.pdb
REMARK  293 active torsions:
REMARK  status: ('A' for Active; 'I' for Inactive)
REMARK    1  A    between atoms: _1  and  _3
REMARK    2  A    between atoms: _3  and  _4
REMARK    3  A    between atoms: _3  and  _6
REMARK    4  A    between atoms: _6  and  _7
REMARK    5  A    between atoms: _7  and  _8
REMARK    6  A    between atoms: _8  and  _9
REMARK    7  A    between atoms: _9  and  _10
REMARK    8  A    between atoms: _14  and  _16
REMARK    9  A    between atoms: _16  and  _17
REMARK   10  A    between atoms: _16  and  _19
REMARK   11  A    between atoms: _19  and  _20
REMARK   12  A    between atoms: _22  and  _24
REMARK   13  A    between atoms: _24  and  _25
REMARK   14  A    between atoms: _27  and  _29
REMARK   15  A    between atoms: _29  and  _30
REMARK   16  A    between atoms: _29  and  _32
REMARK   17  A    between atoms: _32  and  _33
REMARK   18  A    between atoms: _33  and  _34
REMARK   19  A    between atoms: _39  and  _41
REMARK   20  A    between atoms: _41  and  _42
REMARK   21  A    between atoms: _44  and  _46
REMARK   22  A    between atoms: _46  and  _47
REMARK   23  A    between atoms: _46  and  _49
REMARK   24  A    between atoms: _49  and  _50
REMARK   25  A    between atoms: _55  and  _56
REMARK   26  A    between atoms: _58  and  _60
REMARK   27  A    between atoms: _60  and  _61
REMARK   28  A    between atoms: _60  and  _63
REMARK   29  A    between atoms: _63  and  _64
REMARK   30  A    between atoms: _67  and  _69
REMARK   31  A    between atoms: _69  and  _70
REMARK   32  A    between atoms: _69  and  _72
REMARK   33  A    between atoms: _75  and  _77
REMARK   34  A    between atoms: _77  and  _78
REMARK   35  A    between atoms: _77  and  _80
REMARK   36  A    between atoms: _80  and  _81
REMARK   37  A    between atoms: _84  and  _86
REMARK   38  A    between atoms: _86  and  _87
REMARK   39  A    between atoms: _86  and  _89
REMARK   40  A    between atoms: _89  and  _90
REMARK   41  A    between atoms: _93  and  _95
REMARK   42  A    between atoms: _95  and  _96
REMARK   43  A    between atoms: _98  and  _100
REMARK   44  A    between atoms: _100  and  _101
REMARK   45  A    between atoms: _100  and  _103
REMARK   46  A    between atoms: _103  and  _104
REMARK   47  A    between atoms: _106  and  _108
REMARK   48  A    between atoms: _108  and  _109
REMARK   49  A    between atoms: _108  and  _111
REMARK   50  A    between atoms: _111  and  _112
REMARK   51  A    between atoms: _114  and  _116
REMARK   52  A    between atoms: _116  and  _117
REMARK   53  A    between atoms: _116  and  _119
REMARK   54  A    between atoms: _119  and  _120
REMARK   55  A    between atoms: _125  and  _127
REMARK   56  A    between atoms: _127  and  _128
REMARK   57  A    between atoms: _127  and  _130
REMARK   58  A    between atoms: _130  and  _131
REMARK   59  A    between atoms: _136  and  _137
REMARK   60  A    between atoms: _139  and  _141
REMARK   61  A    between atoms: _141  and  _142
REMARK   62  A    between atoms: _141  and  _144
REMARK   63  A    between atoms: _148  and  _149
REMARK   64  A    between atoms: _154  and  _156
REMARK   65  A    between atoms: _156  and  _157
REMARK   66  A    between atoms: _156  and  _159
REMARK   67  A    between atoms: _159  and  _160
REMARK   68  A    between atoms: _165  and  _166
REMARK   69  A    between atoms: _168  and  _170
REMARK   70  A    between atoms: _170  and  _171
REMARK   71  A    between atoms: _170  and  _173
REMARK   72  A    between atoms: _173  and  _174
REMARK   73  A    between atoms: _177  and  _179
REMARK   74  A    between atoms: _179  and  _180
REMARK   75  A    between atoms: _179  and  _182
REMARK   76  A    between atoms: _182  and  _183
REMARK   77  A    between atoms: _183  and  _184
REMARK   78  A    between atoms: _189  and  _191
REMARK   79  A    between atoms: _191  and  _192
REMARK   80  A    between atoms: _194  and  _196
REMARK   81  A    between atoms: _196  and  _197
REMARK   82  A    between atoms: _196  and  _199
REMARK   83  A    between atoms: _199  and  _200
REMARK   84  A    between atoms: _200  and  _201
REMARK   85  A    between atoms: _201  and  _202
REMARK   86  A    between atoms: _202  and  _203
REMARK   87  A    between atoms: _207  and  _209
REMARK   88  A    between atoms: _209  and  _210
REMARK   89  A    between atoms: _209  and  _212
REMARK   90  A    between atoms: _212  and  _213
REMARK   91  A    between atoms: _223  and  _225
REMARK   92  A    between atoms: _225  and  _226
REMARK   93  A    between atoms: _225  and  _228
REMARK   94  A    between atoms: _228  and  _229
REMARK   95  A    between atoms: _232  and  _234
REMARK   96  A    between atoms: _234  and  _235
REMARK   97  A    between atoms: _234  and  _237
REMARK   98  A    between atoms: _237  and  _238
REMARK   99  A    between atoms: _238  and  _239
REMARK  100  A    between atoms: _239  and  _240
REMARK  101  A    between atoms: _240  and  _241
REMARK  102  A    between atoms: _245  and  _247
REMARK  103  A    between atoms: _247  and  _248
REMARK  104  A    between atoms: _247  and  _250
REMARK  105  A    between atoms: _250  and  _251
REMARK  106  A    between atoms: _257  and  _259
REMARK  107  A    between atoms: _259  and  _260
REMARK  108  A    between atoms: _259  and  _262
REMARK  109  A    between atoms: _262  and  _263
REMARK  110  A    between atoms: _269  and  _271
REMARK  111  A    between atoms: _271  and  _272
REMARK  112  A    between atoms: _271  and  _274
REMARK  113  A    between atoms: _274  and  _275
REMARK  114  A    between atoms: _278  and  _280
REMARK  115  A    between atoms: _280  and  _281
REMARK  116  A    between atoms: _280  and  _283
REMARK  117  A    between atoms: _283  and  _284
REMARK  118  A    between atoms: _286  and  _288
REMARK  119  A    between atoms: _288  and  _289
REMARK  120  A    between atoms: _288  and  _291
REMARK  121  A    between atoms: _291  and  _292
REMARK  122  A    between atoms: _302  and  _304
REMARK  123  A    between atoms: _304  and  _305
REMARK  124  A    between atoms: _307  and  _309
REMARK  125  A    between atoms: _309  and  _310
REMARK  126  A    between atoms: _309  and  _312
REMARK  127  A    between atoms: _312  and  _313
REMARK  128  A    between atoms: _316  and  _318
REMARK  129  A    between atoms: _318  and  _319
REMARK  130  A    between atoms: _318  and  _321
REMARK  131  A    between atoms: _321  and  _322
REMARK  132  A    between atoms: _325  and  _327
REMARK  133  A    between atoms: _327  and  _328
REMARK  134  A    between atoms: _327  and  _330
REMARK  135  A    between atoms: _330  and  _331
REMARK  136  A    between atoms: _334  and  _336
REMARK  137  A    between atoms: _336  and  _337
REMARK  138  A    between atoms: _340  and  _342
REMARK  139  A    between atoms: _342  and  _343
REMARK  140  A    between atoms: _342  and  _345
REMARK  141  A    between atoms: _345  and  _346
REMARK  142  A    between atoms: _351  and  _352
REMARK  143  A    between atoms: _354  and  _356
REMARK  144  A    between atoms: _356  and  _357
REMARK  145  A    between atoms: _360  and  _362
REMARK  146  A    between atoms: _362  and  _363
REMARK  147  A    between atoms: _362  and  _365
REMARK  148  A    between atoms: _365  and  _366
REMARK  149  A    between atoms: _366  and  _367
REMARK  150  A    between atoms: _370  and  _372
REMARK  151  A    between atoms: _372  and  _373
REMARK  152  A    between atoms: _372  and  _375
REMARK  153  A    between atoms: _375  and  _376
REMARK  154  A    between atoms: _379  and  _381
REMARK  155  A    between atoms: _381  and  _382
REMARK  156  A    between atoms: _385  and  _387
REMARK  157  A    between atoms: _387  and  _388
REMARK  158  A    between atoms: _387  and  _390
REMARK  159  A    between atoms: _390  and  _391
REMARK  160  A    between atoms: _391  and  _392
REMARK  161  A    between atoms: _392  and  _393
REMARK  162  A    between atoms: _403  and  _404
REMARK  163  A    between atoms: _409  and  _411
REMARK  164  A    between atoms: _411  and  _412
REMARK  165  A    between atoms: _411  and  _414
REMARK  166  A    between atoms: _414  and  _415
REMARK  167  A    between atoms: _418  and  _420
REMARK  168  A    between atoms: _420  and  _421
REMARK  169  A    between atoms: _420  and  _423
REMARK  170  A    between atoms: _423  and  _424
REMARK  171  A    between atoms: _427  and  _429
REMARK  172  A    between atoms: _429  and  _430
REMARK  173  A    between atoms: _429  and  _432
REMARK  174  A    between atoms: _432  and  _433
REMARK  175  A    between atoms: _433  and  _434
REMARK  176  A    between atoms: _434  and  _435
REMARK  177  A    between atoms: _444  and  _446
REMARK  178  A    between atoms: _446  and  _447
REMARK  179  A    between atoms: _446  and  _449
REMARK  180  A    between atoms: _449  and  _450
REMARK  181  A    between atoms: _460  and  _462
REMARK  182  A    between atoms: _462  and  _463
REMARK  183  A    between atoms: _462  and  _465
REMARK  184  A    between atoms: _465  and  _466
REMARK  185  A    between atoms: _471  and  _472
REMARK  186  A    between atoms: _474  and  _476
REMARK  187  A    between atoms: _476  and  _477
REMARK  188  A    between atoms: _476  and  _479
REMARK  189  A    between atoms: _479  and  _480
REMARK  190  A    between atoms: _480  and  _481
REMARK  191  A    between atoms: _481  and  _482
REMARK  192  A    between atoms: _482  and  _483
REMARK  193  A    between atoms: _487  and  _489
REMARK  194  A    between atoms: _489  and  _490
REMARK  195  A    between atoms: _489  and  _492
REMARK  196  A    between atoms: _492  and  _493
REMARK  197  A    between atoms: _496  and  _498
REMARK  198  A    between atoms: _498  and  _499
REMARK  199  A    between atoms: _498  and  _501
REMARK  200  A    between atoms: _504  and  _506
REMARK  201  A    between atoms: _506  and  _507
REMARK  202  A    between atoms: _506  and  _509
REMARK  203  A    between atoms: _509  and  _510
REMARK  204  A    between atoms: _513  and  _515
REMARK  205  A    between atoms: _515  and  _516
REMARK  206  A    between atoms: _515  and  _518
REMARK  207  A    between atoms: _518  and  _519
REMARK  208  A    between atoms: _521  and  _523
REMARK  209  A    between atoms: _523  and  _524
REMARK  210  A    between atoms: _526  and  _528
REMARK  211  A    between atoms: _528  and  _529
REMARK  212  A    between atoms: _528  and  _531
REMARK  213  A    between atoms: _531  and  _532
REMARK  214  A    between atoms: _535  and  _537
REMARK  215  A    between atoms: _537  and  _538
REMARK  216  A    between atoms: _537  and  _540
REMARK  217  A    between atoms: _540  and  _541
REMARK  218  A    between atoms: _544  and  _546
REMARK  219  A    between atoms: _546  and  _547
REMARK  220  A    between atoms: _546  and  _549
REMARK  221  A    between atoms: _549  and  _550
REMARK  222  A    between atoms: _555  and  _557
REMARK  223  A    between atoms: _557  and  _558
REMARK  224  A    between atoms: _557  and  _560
REMARK  225  A    between atoms: _560  and  _561
REMARK  226  A    between atoms: _564  and  _566
REMARK  227  A    between atoms: _566  and  _567
REMARK  228  A    between atoms: _566  and  _569
REMARK  229  A    between atoms: _569  and  _570
REMARK  230  A    between atoms: _570  and  _571
REMARK  231  A    between atoms: _571  and  _572
REMARK  232  A    between atoms: _581  and  _583
REMARK  233  A    between atoms: _583  and  _584
REMARK  234  A    between atoms: _586  and  _588
REMARK  235  A    between atoms: _588  and  _589
REMARK  236  A    between atoms: _588  and  _591
REMARK  237  A    between atoms: _591  and  _592
REMARK  238  A    between atoms: _592  and  _593
REMARK  239  A    between atoms: _596  and  _598
REMARK  240  A    between atoms: _598  and  _599
REMARK  241  A    between atoms: _598  and  _601
REMARK  242  A    between atoms: _601  and  _602
REMARK  243  A    between atoms: _602  and  _603
REMARK  244  A    between atoms: _603  and  _604
REMARK  245  A    between atoms: _614  and  _615
REMARK  246  A    between atoms: _620  and  _622
REMARK  247  A    between atoms: _622  and  _623
REMARK  248  A    between atoms: _622  and  _625
REMARK  249  A    between atoms: _628  and  _630
REMARK  250  A    between atoms: _630  and  _631
REMARK  251  A    between atoms: _630  and  _633
REMARK  252  A    between atoms: _633  and  _634
REMARK  253  A    between atoms: _634  and  _635
REMARK  254  A    between atoms: _638  and  _640
REMARK  255  A    between atoms: _640  and  _641
REMARK  256  A    between atoms: _640  and  _643
REMARK  257  A    between atoms: _643  and  _644
REMARK  258  A    between atoms: _644  and  _645
REMARK  259  A    between atoms: _645  and  _646
REMARK  260  A    between atoms: _646  and  _647
REMARK  261  A    between atoms: _651  and  _653
REMARK  262  A    between atoms: _653  and  _654
REMARK  263  A    between atoms: _657  and  _659
REMARK  264  A    between atoms: _659  and  _660
REMARK  265  A    between atoms: _659  and  _662
REMARK  266  A    between atoms: _662  and  _663
REMARK  267  A    between atoms: _665  and  _667
REMARK  268  A    between atoms: _667  and  _668
REMARK  269  A    between atoms: _667  and  _670
REMARK  270  A    between atoms: _670  and  _671
REMARK  271  A    between atoms: _671  and  _672
REMARK  272  A    between atoms: _677  and  _679
REMARK  273  A    between atoms: _679  and  _680
REMARK  274  A    between atoms: _679  and  _682
REMARK  275  A    between atoms: _682  and  _683
REMARK  276  A    between atoms: _685  and  _687
REMARK  277  A    between atoms: _687  and  _688
REMARK  278  A    between atoms: _687  and  _690
REMARK  279  A    between atoms: _690  and  _691
REMARK  280  A    between atoms: _694  and  _696
REMARK  281  A    between atoms: _696  and  _697
REMARK  282  A    between atoms: _696  and  _699
REMARK  283  A    between atoms: _699  and  _700
REMARK  284  A    between atoms: _703  and  _705
REMARK  285  A    between atoms: _705  and  _706
REMARK  286  A    between atoms: _705  and  _708
REMARK  287  A    between atoms: _711  and  _713
REMARK  288  A    between atoms: _713  and  _714
REMARK  289  A    between atoms: _716  and  _718
REMARK  290  A    between atoms: _718  and  _719
REMARK  291  A    between atoms: _722  and  _724
REMARK  292  A    between atoms: _724  and  _725
REMARK  293  A    between atoms: _724  and  _727
REMARK                            x       y       z     vdW  Elec       q    Type
REMARK                         _______ _______ _______ _____ _____    ______ ____
ROOT
ATOM      1  O   HOH     1      14.074  29.738  26.826  0.00  0.00    +0.000 OA
ENDROOT
TORSDOF 0
REMARK  Name = ../refined-set-2016/1m4h/1m4h_pocket.pdb
REMARK  293 active torsions:
REMARK  status: ('A' for Active; 'I' for Inactive)
REMARK    1  A    between atoms: _1  and  _3
REMARK    2  A    between atoms: _3  and  _4
REMARK    3  A    between atoms: _3  and  _6
REMARK    4  A    between atoms: _6  and  _7
REMARK    5  A    between atoms: _7  and  _8
REMARK    6  A    between atoms: _8  and  _9
REMARK    7  A    between atoms: _9  and  _10
REMARK    8  A    between atoms: _14  and  _16
REMARK    9  A    between atoms: _16  and  _17
REMARK   10  A    between atoms: _16  and  _19
REMARK   11  A    between atoms: _19  and  _20
REMARK   12  A    between atoms: _22  and  _24
REMARK   13  A    between atoms: _24  and  _25
REMARK   14  A    between atoms: _27  and  _29
REMARK   15  A    between atoms: _29  and  _30
REMARK   16  A    between atoms: _29  and  _32
REMARK   17  A    between atoms: _32  and  _33
REMARK   18  A    between atoms: _33  and  _34
REMARK   19  A    between atoms: _39  and  _41
REMARK   20  A    between atoms: _41  and  _42
REMARK   21  A    between atoms: _44  and  _46
REMARK   22  A    between atoms: _46  and  _47
REMARK   23  A    between atoms: _46  and  _49
REMARK   24  A    between atoms: _49  and  _50
REMARK   25  A    between atoms: _55  and  _56
REMARK   26  A    between atoms: _58  and  _60
REMARK   27  A    between atoms: _60  and  _61
REMARK   28  A    between atoms: _60  and  _63
REMARK   29  A    between atoms: _63  and  _64
REMARK   30  A    between atoms: _67  and  _69
REMARK   31  A    between atoms: _69  and  _70
REMARK   32  A    between atoms: _69  and  _72
REMARK   33  A    between atoms: _75  and  _77
REMARK   34  A    between atoms: _77  and  _78
REMARK   35  A    between atoms: _77  and  _80
REMARK   36  A    between atoms: _80  and  _81
REMARK   37  A    between atoms: _84  and  _86
REMARK   38  A    between atoms: _86  and  _87
REMARK   39  A    between atoms: _86  and  _89
REMARK   40  A    between atoms: _89  and  _90
REMARK   41  A    between atoms: _93  and  _95
REMARK   42  A    between atoms: _95  and  _96
REMARK   43  A    between atoms: _98  and  _100
REMARK   44  A    between atoms: _100  and  _101
REMARK   45  A    between atoms: _100  and  _103
REMARK   46  A    between atoms: _103  and  _104
REMARK   47  A    between atoms: _106  and  _108
REMARK   48  A    between atoms: _108  and  _109
REMARK   49  A    between atoms: _108  and  _111
REMARK   50  A    between atoms: _111  and  _112
REMARK   51  A    between atoms: _114  and  _116
REMARK   52  A    between atoms: _116  and  _117
REMARK   53  A    between atoms: _116  and  _119
REMARK   54  A    between atoms: _119  and  _120
REMARK   55  A    between atoms: _125  and  _127
REMARK   56  A    between atoms: _127  and  _128
REMARK   57  A    between atoms: _127  and  _130
REMARK   58  A    between atoms: _130  and  _131
REMARK   59  A    between atoms: _136  and  _137
REMARK   60  A    between atoms: _139  and  _141
REMARK   61  A    between atoms: _141  and  _142
REMARK   62  A    between atoms: _141  and  _144
REMARK   63  A    between atoms: _148  and  _149
REMARK   64  A    between atoms: _154  and  _156
REMARK   65  A    between atoms: _156  and  _157
REMARK   66  A    between atoms: _156  and  _159
REMARK   67  A    between atoms: _159  and  _160
REMARK   68  A    between atoms: _165  and  _166
REMARK   69  A    between atoms: _168  and  _170
REMARK   70  A    between atoms: _170  and  _171
REMARK   71  A    between atoms: _170  and  _173
REMARK   72  A    between atoms: _173  and  _174
REMARK   73  A    between atoms: _177  and  _179
REMARK   74  A    between atoms: _179  and  _180
REMARK   75  A    between atoms: _179  and  _182
REMARK   76  A    between atoms: _182  and  _183
REMARK   77  A    between atoms: _183  and  _184
REMARK   78  A    between atoms: _189  and  _191
REMARK   79  A    between atoms: _191  and  _192
REMARK   80  A    between atoms: _194  and  _196
REMARK   81  A    between atoms: _196  and  _197
REMARK   82  A    between atoms: _196  and  _199
REMARK   83  A    between atoms: _199  and  _200
REMARK   84  A    between atoms: _200  and  _201
REMARK   85  A    between atoms: _201  and  _202
REMARK   86  A    between atoms: _202  and  _203
REMARK   87  A    between atoms: _207  and  _209
REMARK   88  A    between atoms: _209  and  _210
REMARK   89  A    between atoms: _209  and  _212
REMARK   90  A    between atoms: _212  and  _213
REMARK   91  A    between atoms: _223  and  _225
REMARK   92  A    between atoms: _225  and  _226
REMARK   93  A    between atoms: _225  and  _228
REMARK   94  A    between atoms: _228  and  _229
REMARK   95  A    between atoms: _232  and  _234
REMARK   96  A    between atoms: _234  and  _235
REMARK   97  A    between atoms: _234  and  _237
REMARK   98  A    between atoms: _237  and  _238
REMARK   99  A    between atoms: _238  and  _239
REMARK  100  A    between atoms: _239  and  _240
REMARK  101  A    between atoms: _240  and  _241
REMARK  102  A    between atoms: _245  and  _247
REMARK  103  A    between atoms: _247  and  _248
REMARK  104  A    between atoms: _247  and  _250
REMARK  105  A    between atoms: _250  and  _251
REMARK  106  A    between atoms: _257  and  _259
REMARK  107  A    between atoms: _259  and  _260
REMARK  108  A    between atoms: _259  and  _262
REMARK  109  A    between atoms: _262  and  _263
REMARK  110  A    between atoms: _269  and  _271
REMARK  111  A    between atoms: _271  and  _272
REMARK  112  A    between atoms: _271  and  _274
REMARK  113  A    between atoms: _274  and  _275
REMARK  114  A    between atoms: _278  and  _280
REMARK  115  A    between atoms: _280  and  _281
REMARK  116  A    between atoms: _280  and  _283
REMARK  117  A    between atoms: _283  and  _284
REMARK  118  A    between atoms: _286  and  _288
REMARK  119  A    between atoms: _288  and  _289
REMARK  120  A    between atoms: _288  and  _291
REMARK  121  A    between atoms: _291  and  _292
REMARK  122  A    between atoms: _302  and  _304
REMARK  123  A    between atoms: _304  and  _305
REMARK  124  A    between atoms: _307  and  _309
REMARK  125  A    between atoms: _309  and  _310
REMARK  126  A    between atoms: _309  and  _312
REMARK  127  A    between atoms: _312  and  _313
REMARK  128  A    between atoms: _316  and  _318
REMARK  129  A    between atoms: _318  and  _319
REMARK  130  A    between atoms: _318  and  _321
REMARK  131  A    between atoms: _321  and  _322
REMARK  132  A    between atoms: _325  and  _327
REMARK  133  A    between atoms: _327  and  _328
REMARK  134  A    between atoms: _327  and  _330
REMARK  135  A    between atoms: _330  and  _331
REMARK  136  A    between atoms: _334  and  _336
REMARK  137  A    between atoms: _336  and  _337
REMARK  138  A    between atoms: _340  and  _342
REMARK  139  A    between atoms: _342  and  _343
REMARK  140  A    between atoms: _342  and  _345
REMARK  141  A    between atoms: _345  and  _346
REMARK  142  A    between atoms: _351  and  _352
REMARK  143  A    between atoms: _354  and  _356
REMARK  144  A    between atoms: _356  and  _357
REMARK  145  A    between atoms: _360  and  _362
REMARK  146  A    between atoms: _362  and  _363
REMARK  147  A    between atoms: _362  and  _365
REMARK  148  A    between atoms: _365  and  _366
REMARK  149  A    between atoms: _366  and  _367
REMARK  150  A    between atoms: _370  and  _372
REMARK  151  A    between atoms: _372  and  _373
REMARK  152  A    between atoms: _372  and  _375
REMARK  153  A    between atoms: _375  and  _376
REMARK  154  A    between atoms: _379  and  _381
REMARK  155  A    between atoms: _381  and  _382
REMARK  156  A    between atoms: _385  and  _387
REMARK  157  A    between atoms: _387  and  _388
REMARK  158  A    between atoms: _387  and  _390
REMARK  159  A    between atoms: _390  and  _391
REMARK  160  A    between atoms: _391  and  _392
REMARK  161  A    between atoms: _392  and  _393
REMARK  162  A    between atoms: _403  and  _404
REMARK  163  A    between atoms: _409  and  _411
REMARK  164  A    between atoms: _411  and  _412
REMARK  165  A    between atoms: _411  and  _414
REMARK  166  A    between atoms: _414  and  _415
REMARK  167  A    between atoms: _418  and  _420
REMARK  168  A    between atoms: _420  and  _421
REMARK  169  A    between atoms: _420  and  _423
REMARK  170  A    between atoms: _423  and  _424
REMARK  171  A    between atoms: _427  and  _429
REMARK  172  A    between atoms: _429  and  _430
REMARK  173  A    between atoms: _429  and  _432
REMARK  174  A    between atoms: _432  and  _433
REMARK  175  A    between atoms: _433  and  _434
REMARK  176  A    between atoms: _434  and  _435
REMARK  177  A    between atoms: _444  and  _446
REMARK  178  A    between atoms: _446  and  _447
REMARK  179  A    between atoms: _446  and  _449
REMARK  180  A    between atoms: _449  and  _450
REMARK  181  A    between atoms: _460  and  _462
REMARK  182  A    between atoms: _462  and  _463
REMARK  183  A    between atoms: _462  and  _465
REMARK  184  A    between atoms: _465  and  _466
REMARK  185  A    between atoms: _471  and  _472
REMARK  186  A    between atoms: _474  and  _476
REMARK  187  A    between atoms: _476  and  _477
REMARK  188  A    between atoms: _476  and  _479
REMARK  189  A    between atoms: _479  and  _480
REMARK  190  A    between atoms: _480  and  _481
REMARK  191  A    between atoms: _481  and  _482
REMARK  192  A    between atoms: _482  and  _483
REMARK  193  A    between atoms: _487  and  _489
REMARK  194  A    between atoms: _489  and  _490
REMARK  195  A    between atoms: _489  and  _492
REMARK  196  A    between atoms: _492  and  _493
REMARK  197  A    between atoms: _496  and  _498
REMARK  198  A    between atoms: _498  and  _499
REMARK  199  A    between atoms: _498  and  _501
REMARK  200  A    between atoms: _504  and  _506
REMARK  201  A    between atoms: _506  and  _507
REMARK  202  A    between atoms: _506  and  _509
REMARK  203  A    between atoms: _509  and  _510
REMARK  204  A    between atoms: _513  and  _515
REMARK  205  A    between atoms: _515  and  _516
REMARK  206  A    between atoms: _515  and  _518
REMARK  207  A    between atoms: _518  and  _519
REMARK  208  A    between atoms: _521  and  _523
REMARK  209  A    between atoms: _523  and  _524
REMARK  210  A    between atoms: _526  and  _528
REMARK  211  A    between atoms: _528  and  _529
REMARK  212  A    between atoms: _528  and  _531
REMARK  213  A    between atoms: _531  and  _532
REMARK  214  A    between atoms: _535  and  _537
REMARK  215  A    between atoms: _537  and  _538
REMARK  216  A    between atoms: _537  and  _540
REMARK  217  A    between atoms: _540  and  _541
REMARK  218  A    between atoms: _544  and  _546
REMARK  219  A    between atoms: _546  and  _547
REMARK  220  A    between atoms: _546  and  _549
REMARK  221  A    between atoms: _549  and  _550
REMARK  222  A    between atoms: _555  and  _557
REMARK  223  A    between atoms: _557  and  _558
REMARK  224  A    between atoms: _557  and  _560
REMARK  225  A    between atoms: _560  and  _561
REMARK  226  A    between atoms: _564  and  _566
REMARK  227  A    between atoms: _566  and  _567
REMARK  228  A    between atoms: _566  and  _569
REMARK  229  A    between atoms: _569  and  _570
REMARK  230  A    between atoms: _570  and  _571
REMARK  231  A    between atoms: _571  and  _572
REMARK  232  A    between atoms: _581  and  _583
REMARK  233  A    between atoms: _583  and  _584
REMARK  234  A    between atoms: _586  and  _588
REMARK  235  A    between atoms: _588  and  _589
REMARK  236  A    between atoms: _588  and  _591
REMARK  237  A    between atoms: _591  and  _592
REMARK  238  A    between atoms: _592  and  _593
REMARK  239  A    between atoms: _596  and  _598
REMARK  240  A    between atoms: _598  and  _599
REMARK  241  A    between atoms: _598  and  _601
REMARK  242  A    between atoms: _601  and  _602
REMARK  243  A    between atoms: _602  and  _603
REMARK  244  A    between atoms: _603  and  _604
REMARK  245  A    between atoms: _614  and  _615
REMARK  246  A    between atoms: _620  and  _622
REMARK  247  A    between atoms: _622  and  _623
REMARK  248  A    between atoms: _622  and  _625
REMARK  249  A    between atoms: _628  and  _630
REMARK  250  A    between atoms: _630  and  _631
REMARK  251  A    between atoms: _630  and  _633
REMARK  252  A    between atoms: _633  and  _634
REMARK  253  A    between atoms: _634  and  _635
REMARK  254  A    between atoms: _638  and  _640
REMARK  255  A    between atoms: _640  and  _641
REMARK  256  A    between atoms: _640  and  _643
REMARK  257  A    between atoms: _643  and  _644
REMARK  258  A    between atoms: _644  and  _645
REMARK  259  A    between atoms: _645  and  _646
REMARK  260  A    between atoms: _646  and  _647
REMARK  261  A    between atoms: _651  and  _653
REMARK  262  A    between atoms: _653  and  _654
REMARK  263  A    between atoms: _657  and  _659
REMARK  264  A    between atoms: _659  and  _660
REMARK  265  A    between atoms: _659  and  _662
REMARK  266  A    between atoms: _662  and  _663
REMARK  267  A    between atoms: _665  and  _667
REMARK  268  A    between atoms: _667  and  _668
REMARK  269  A    between atoms: _667  and  _670
REMARK  270  A    between atoms: _670  and  _671
REMARK  271  A    between atoms: _671  and  _672
REMARK  272  A    between atoms: _677  and  _679
REMARK  273  A    between atoms: _679  and  _680
REMARK  274  A    between atoms: _679  and  _682
REMARK  275  A    between atoms: _682  and  _683
REMARK  276  A    between atoms: _685  and  _687
REMARK  277  A    between atoms: _687  and  _688
REMARK  278  A    between atoms: _687  and  _690
REMARK  279  A    between atoms: _690  and  _691
REMARK  280  A    between atoms: _694  and  _696
REMARK  281  A    between atoms: _696  and  _697
REMARK  282  A    between atoms: _696  and  _699
REMARK  283  A    between atoms: _699  and  _700
REMARK  284  A    between atoms: _703  and  _705
REMARK  285  A    between atoms: _705  and  _706
REMARK  286  A    between atoms: _705  and  _708
REMARK  287  A    between atoms: _711  and  _713
REMARK  288  A    between atoms: _713  and  _714
REMARK  289  A    between atoms: _716  and  _718
REMARK  290  A    between atoms: _718  and  _719
REMARK  291  A    between atoms: _722  and  _724
REMARK  292  A    between atoms: _724  and  _725
REMARK  293  A    between atoms: _724  and  _727
REMARK                            x       y       z     vdW  Elec       q    Type
REMARK                         _______ _______ _______ _____ _____    ______ ____
ROOT
ATOM      1  O   HOH     1      19.332  30.608  27.445  0.00  0.00    +0.000 OA
ENDROOT
TORSDOF 0
REMARK  Name = ../refined-set-2016/1m4h/1m4h_pocket.pdb
REMARK  293 active torsions:
REMARK  status: ('A' for Active; 'I' for Inactive)
REMARK    1  A    between atoms: _1  and  _3
REMARK    2  A    between atoms: _3  and  _4
REMARK    3  A    between atoms: _3  and  _6
REMARK    4  A    between atoms: _6  and  _7
REMARK    5  A    between atoms: _7  and  _8
REMARK    6  A    between atoms: _8  and  _9
REMARK    7  A    between atoms: _9  and  _10
REMARK    8  A    between atoms: _14  and  _16
REMARK    9  A    between atoms: _16  and  _17
REMARK   10  A    between atoms: _16  and  _19
REMARK   11  A    between atoms: _19  and  _20
REMARK   12  A    between atoms: _22  and  _24
REMARK   13  A    between atoms: _24  and  _25
REMARK   14  A    between atoms: _27  and  _29
REMARK   15  A    between atoms: _29  and  _30
REMARK   16  A    between atoms: _29  and  _32
REMARK   17  A    between atoms: _32  and  _33
REMARK   18  A    between atoms: _33  and  _34
REMARK   19  A    between atoms: _39  and  _41
REMARK   20  A    between atoms: _41  and  _42
REMARK   21  A    between atoms: _44  and  _46
REMARK   22  A    between atoms: _46  and  _47
REMARK   23  A    between atoms: _46  and  _49
REMARK   24  A    between atoms: _49  and  _50
REMARK   25  A    between atoms: _55  and  _56
REMARK   26  A    between atoms: _58  and  _60
REMARK   27  A    between atoms: _60  and  _61
REMARK   28  A    between atoms: _60  and  _63
REMARK   29  A    between atoms: _63  and  _64
REMARK   30  A    between atoms: _67  and  _69
REMARK   31  A    between atoms: _69  and  _70
REMARK   32  A    between atoms: _69  and  _72
REMARK   33  A    between atoms: _75  and  _77
REMARK   34  A    between atoms: _77  and  _78
REMARK   35  A    between atoms: _77  and  _80
REMARK   36  A    between atoms: _80  and  _81
REMARK   37  A    between atoms: _84  and  _86
REMARK   38  A    between atoms: _86  and  _87
REMARK   39  A    between atoms: _86  and  _89
REMARK   40  A    between atoms: _89  and  _90
REMARK   41  A    between atoms: _93  and  _95
REMARK   42  A    between atoms: _95  and  _96
REMARK   43  A    between atoms: _98  and  _100
REMARK   44  A    between atoms: _100  and  _101
REMARK   45  A    between atoms: _100  and  _103
REMARK   46  A    between atoms: _103  and  _104
REMARK   47  A    between atoms: _106  and  _108
REMARK   48  A    between atoms: _108  and  _109
REMARK   49  A    between atoms: _108  and  _111
REMARK   50  A    between atoms: _111  and  _112
REMARK   51  A    between atoms: _114  and  _116
REMARK   52  A    between atoms: _116  and  _117
REMARK   53  A    between atoms: _116  and  _119
REMARK   54  A    between atoms: _119  and  _120
REMARK   55  A    between atoms: _125  and  _127
REMARK   56  A    between atoms: _127  and  _128
REMARK   57  A    between atoms: _127  and  _130
REMARK   58  A    between atoms: _130  and  _131
REMARK   59  A    between atoms: _136  and  _137
REMARK   60  A    between atoms: _139  and  _141
REMARK   61  A    between atoms: _141  and  _142
REMARK   62  A    between atoms: _141  and  _144
REMARK   63  A    between atoms: _148  and  _149
REMARK   64  A    between atoms: _154  and  _156
REMARK   65  A    between atoms: _156  and  _157
REMARK   66  A    between atoms: _156  and  _159
REMARK   67  A    between atoms: _159  and  _160
REMARK   68  A    between atoms: _165  and  _166
REMARK   69  A    between atoms: _168  and  _170
REMARK   70  A    between atoms: _170  and  _171
REMARK   71  A    between atoms: _170  and  _173
REMARK   72  A    between atoms: _173  and  _174
REMARK   73  A    between atoms: _177  and  _179
REMARK   74  A    between atoms: _179  and  _180
REMARK   75  A    between atoms: _179  and  _182
REMARK   76  A    between atoms: _182  and  _183
REMARK   77  A    between atoms: _183  and  _184
REMARK   78  A    between atoms: _189  and  _191
REMARK   79  A    between atoms: _191  and  _192
REMARK   80  A    between atoms: _194  and  _196
REMARK   81  A    between atoms: _196  and  _197
REMARK   82  A    between atoms: _196  and  _199
REMARK   83  A    between atoms: _199  and  _200
REMARK   84  A    between atoms: _200  and  _201
REMARK   85  A    between atoms: _201  and  _202
REMARK   86  A    between atoms: _202  and  _203
REMARK   87  A    between atoms: _207  and  _209
REMARK   88  A    between atoms: _209  and  _210
REMARK   89  A    between atoms: _209  and  _212
REMARK   90  A    between atoms: _212  and  _213
REMARK   91  A    between atoms: _223  and  _225
REMARK   92  A    between atoms: _225  and  _226
REMARK   93  A    between atoms: _225  and  _228
REMARK   94  A    between atoms: _228  and  _229
REMARK   95  A    between atoms: _232  and  _234
REMARK   96  A    between atoms: _234  and  _235
REMARK   97  A    between atoms: _234  and  _237
REMARK   98  A    between atoms: _237  and  _238
REMARK   99  A    between atoms: _238  and  _239
REMARK  100  A    between atoms: _239  and  _240
REMARK  101  A    between atoms: _240  and  _241
REMARK  102  A    between atoms: _245  and  _247
REMARK  103  A    between atoms: _247  and  _248
REMARK  104  A    between atoms: _247  and  _250
REMARK  105  A    between atoms: _250  and  _251
REMARK  106  A    between atoms: _257  and  _259
REMARK  107  A    between atoms: _259  and  _260
REMARK  108  A    between atoms: _259  and  _262
REMARK  109  A    between atoms: _262  and  _263
REMARK  110  A    between atoms: _269  and  _271
REMARK  111  A    between atoms: _271  and  _272
REMARK  112  A    between atoms: _271  and  _274
REMARK  113  A    between atoms: _274  and  _275
REMARK  114  A    between atoms: _278  and  _280
REMARK  115  A    between atoms: _280  and  _281
REMARK  116  A    between atoms: _280  and  _283
REMARK  117  A    between atoms: _283  and  _284
REMARK  118  A    between atoms: _286  and  _288
REMARK  119  A    between atoms: _288  and  _289
REMARK  120  A    between atoms: _288  and  _291
REMARK  121  A    between atoms: _291  and  _292
REMARK  122  A    between atoms: _302  and  _304
REMARK  123  A    between atoms: _304  and  _305
REMARK  124  A    between atoms: _307  and  _309
REMARK  125  A    between atoms: _309  and  _310
REMARK  126  A    between atoms: _309  and  _312
REMARK  127  A    between atoms: _312  and  _313
REMARK  128  A    between atoms: _316  and  _318
REMARK  129  A    between atoms: _318  and  _319
REMARK  130  A    between atoms: _318  and  _321
REMARK  131  A    between atoms: _321  and  _322
REMARK  132  A    between atoms: _325  and  _327
REMARK  133  A    between atoms: _327  and  _328
REMARK  134  A    between atoms: _327  and  _330
REMARK  135  A    between atoms: _330  and  _331
REMARK  136  A    between atoms: _334  and  _336
REMARK  137  A    between atoms: _336  and  _337
REMARK  138  A    between atoms: _340  and  _342
REMARK  139  A    between atoms: _342  and  _343
REMARK  140  A    between atoms: _342  and  _345
REMARK  141  A    between atoms: _345  and  _346
REMARK  142  A    between atoms: _351  and  _352
REMARK  143  A    between atoms: _354  and  _356
REMARK  144  A    between atoms: _356  and  _357
REMARK  145  A    between atoms: _360  and  _362
REMARK  146  A    between atoms: _362  and  _363
REMARK  147  A    between atoms: _362  and  _365
REMARK  148  A    between atoms: _365  and  _366
REMARK  149  A    between atoms: _366  and  _367
REMARK  150  A    between atoms: _370  and  _372
REMARK  151  A    between atoms: _372  and  _373
REMARK  152  A    between atoms: _372  and  _375
REMARK  153  A    between atoms: _375  and  _376
REMARK  154  A    between atoms: _379  and  _381
REMARK  155  A    between atoms: _381  and  _382
REMARK  156  A    between atoms: _385  and  _387
REMARK  157  A    between atoms: _387  and  _388
REMARK  158  A    between atoms: _387  and  _390
REMARK  159  A    between atoms: _390  and  _391
REMARK  160  A    between atoms: _391  and  _392
REMARK  161  A    between atoms: _392  and  _393
REMARK  162  A    between atoms: _403  and  _404
REMARK  163  A    between atoms: _409  and  _411
REMARK  164  A    between atoms: _411  and  _412
REMARK  165  A    between atoms: _411  and  _414
REMARK  166  A    between atoms: _414  and  _415
REMARK  167  A    between atoms: _418  and  _420
REMARK  168  A    between atoms: _420  and  _421
REMARK  169  A    between atoms: _420  and  _423
REMARK  170  A    between atoms: _423  and  _424
REMARK  171  A    between atoms: _427  and  _429
REMARK  172  A    between atoms: _429  and  _430
REMARK  173  A    between atoms: _429  and  _432
REMARK  174  A    between atoms: _432  and  _433
REMARK  175  A    between atoms: _433  and  _434
REMARK  176  A    between atoms: _434  and  _435
REMARK  177  A    between atoms: _444  and  _446
REMARK  178  A    between atoms: _446  and  _447
REMARK  179  A    between atoms: _446  and  _449
REMARK  180  A    between atoms: _449  and  _450
REMARK  181  A    between atoms: _460  and  _462
REMARK  182  A    between atoms: _462  and  _463
REMARK  183  A    between atoms: _462  and  _465
REMARK  184  A    between atoms: _465  and  _466
REMARK  185  A    between atoms: _471  and  _472
REMARK  186  A    between atoms: _474  and  _476
REMARK  187  A    between atoms: _476  and  _477
REMARK  188  A    between atoms: _476  and  _479
REMARK  189  A    between atoms: _479  and  _480
REMARK  190  A    between atoms: _480  and  _481
REMARK  191  A    between atoms: _481  and  _482
REMARK  192  A    between atoms: _482  and  _483
REMARK  193  A    between atoms: _487  and  _489
REMARK  194  A    between atoms: _489  and  _490
REMARK  195  A    between atoms: _489  and  _492
REMARK  196  A    between atoms: _492  and  _493
REMARK  197  A    between atoms: _496  and  _498
REMARK  198  A    between atoms: _498  and  _499
REMARK  199  A    between atoms: _498  and  _501
REMARK  200  A    between atoms: _504  and  _506
REMARK  201  A    between atoms: _506  and  _507
REMARK  202  A    between atoms: _506  and  _509
REMARK  203  A    between atoms: _509  and  _510
REMARK  204  A    between atoms: _513  and  _515
REMARK  205  A    between atoms: _515  and  _516
REMARK  206  A    between atoms: _515  and  _518
REMARK  207  A    between atoms: _518  and  _519
REMARK  208  A    between atoms: _521  and  _523
REMARK  209  A    between atoms: _523  and  _524
REMARK  210  A    between atoms: _526  and  _528
REMARK  211  A    between atoms: _528  and  _529
REMARK  212  A    between atoms: _528  and  _531
REMARK  213  A    between atoms: _531  and  _532
REMARK  214  A    between atoms: _535  and  _537
REMARK  215  A    between atoms: _537  and  _538
REMARK  216  A    between atoms: _537  and  _540
REMARK  217  A    between atoms: _540  and  _541
REMARK  218  A    between atoms: _544  and  _546
REMARK  219  A    between atoms: _546  and  _547
REMARK  220  A    between atoms: _546  and  _549
REMARK  221  A    between atoms: _549  and  _550
REMARK  222  A    between atoms: _555  and  _557
REMARK  223  A    between atoms: _557  and  _558
REMARK  224  A    between atoms: _557  and  _560
REMARK  225  A    between atoms: _560  and  _561
REMARK  226  A    between atoms: _564  and  _566
REMARK  227  A    between atoms: _566  and  _567
REMARK  228  A    between atoms: _566  and  _569
REMARK  229  A    between atoms: _569  and  _570
REMARK  230  A    between atoms: _570  and  _571
REMARK  231  A    between atoms: _571  and  _572
REMARK  232  A    between atoms: _581  and  _583
REMARK  233  A    between atoms: _583  and  _584
REMARK  234  A    between atoms: _586  and  _588
REMARK  235  A    between atoms: _588  and  _589
REMARK  236  A    between atoms: _588  and  _591
REMARK  237  A    between atoms: _591  and  _592
REMARK  238  A    between atoms: _592  and  _593
REMARK  239  A    between atoms: _596  and  _598
REMARK  240  A    between atoms: _598  and  _599
REMARK  241  A    between atoms: _598  and  _601
REMARK  242  A    between atoms: _601  and  _602
REMARK  243  A    between atoms: _602  and  _603
REMARK  244  A    between atoms: _603  and  _604
REMARK  245  A    between atoms: _614  and  _615
REMARK  246  A    between atoms: _620  and  _622
REMARK  247  A    between atoms: _622  and  _623
REMARK  248  A    between atoms: _622  and  _625
REMARK  249  A    between atoms: _628  and  _630
REMARK  250  A    between atoms: _630  and  _631
REMARK  251  A    between atoms: _630  and  _633
REMARK  252  A    between atoms: _633  and  _634
REMARK  253  A    between atoms: _634  and  _635
REMARK  254  A    between atoms: _638  and  _640
REMARK  255  A    between atoms: _640  and  _641
REMARK  256  A    between atoms: _640  and  _643
REMARK  257  A    between atoms: _643  and  _644
REMARK  258  A    between atoms: _644  and  _645
REMARK  259  A    between atoms: _645  and  _646
REMARK  260  A    between atoms: _646  and  _647
REMARK  261  A    between atoms: _651  and  _653
REMARK  262  A    between atoms: _653  and  _654
REMARK  263  A    between atoms: _657  and  _659
REMARK  264  A    between atoms: _659  and  _660
REMARK  265  A    between atoms: _659  and  _662
REMARK  266  A    between atoms: _662  and  _663
REMARK  267  A    between atoms: _665  and  _667
REMARK  268  A    between atoms: _667  and  _668
REMARK  269  A    between atoms: _667  and  _670
REMARK  270  A    between atoms: _670  and  _671
REMARK  271  A    between atoms: _671  and  _672
REMARK  272  A    between atoms: _677  and  _679
REMARK  273  A    between atoms: _679  and  _680
REMARK  274  A    between atoms: _679  and  _682
REMARK  275  A    between atoms: _682  and  _683
REMARK  276  A    between atoms: _685  and  _687
REMARK  277  A    between atoms: _687  and  _688
REMARK  278  A    between atoms: _687  and  _690
REMARK  279  A    between atoms: _690  and  _691
REMARK  280  A    between atoms: _694  and  _696
REMARK  281  A    between atoms: _696  and  _697
REMARK  282  A    between atoms: _696  and  _699
REMARK  283  A    between atoms: _699  and  _700
REMARK  284  A    between atoms: _703  and  _705
REMARK  285  A    between atoms: _705  and  _706
REMARK  286  A    between atoms: _705  and  _708
REMARK  287  A    between atoms: _711  and  _713
REMARK  288  A    between atoms: _713  and  _714
REMARK  289  A    between atoms: _716  and  _718
REMARK  290  A    between atoms: _718  and  _719
REMARK  291  A    between atoms: _722  and  _724
REMARK  292  A    between atoms: _724  and  _725
REMARK  293  A    between atoms: _724  and  _727
REMARK                            x       y       z     vdW  Elec       q    Type
REMARK                         _______ _______ _______ _____ _____    ______ ____
ROOT
ATOM      1  O   HOH     1      14.692  26.759  26.813  0.00  0.00    +0.000 OA
ENDROOT
TORSDOF 0
REMARK  Name = ../refined-set-2016/1m4h/1m4h_pocket.pdb
REMARK  293 active torsions:
REMARK  status: ('A' for Active; 'I' for Inactive)
REMARK    1  A    between atoms: _1  and  _3
REMARK    2  A    between atoms: _3  and  _4
REMARK    3  A    between atoms: _3  and  _6
REMARK    4  A    between atoms: _6  and  _7
REMARK    5  A    between atoms: _7  and  _8
REMARK    6  A    between atoms: _8  and  _9
REMARK    7  A    between atoms: _9  and  _10
REMARK    8  A    between atoms: _14  and  _16
REMARK    9  A    between atoms: _16  and  _17
REMARK   10  A    between atoms: _16  and  _19
REMARK   11  A    between atoms: _19  and  _20
REMARK   12  A    between atoms: _22  and  _24
REMARK   13  A    between atoms: _24  and  _25
REMARK   14  A    between atoms: _27  and  _29
REMARK   15  A    between atoms: _29  and  _30
REMARK   16  A    between atoms: _29  and  _32
REMARK   17  A    between atoms: _32  and  _33
REMARK   18  A    between atoms: _33  and  _34
REMARK   19  A    between atoms: _39  and  _41
REMARK   20  A    between atoms: _41  and  _42
REMARK   21  A    between atoms: _44  and  _46
REMARK   22  A    between atoms: _46  and  _47
REMARK   23  A    between atoms: _46  and  _49
REMARK   24  A    between atoms: _49  and  _50
REMARK   25  A    between atoms: _55  and  _56
REMARK   26  A    between atoms: _58  and  _60
REMARK   27  A    between atoms: _60  and  _61
REMARK   28  A    between atoms: _60  and  _63
REMARK   29  A    between atoms: _63  and  _64
REMARK   30  A    between atoms: _67  and  _69
REMARK   31  A    between atoms: _69  and  _70
REMARK   32  A    between atoms: _69  and  _72
REMARK   33  A    between atoms: _75  and  _77
REMARK   34  A    between atoms: _77  and  _78
REMARK   35  A    between atoms: _77  and  _80
REMARK   36  A    between atoms: _80  and  _81
REMARK   37  A    between atoms: _84  and  _86
REMARK   38  A    between atoms: _86  and  _87
REMARK   39  A    between atoms: _86  and  _89
REMARK   40  A    between atoms: _89  and  _90
REMARK   41  A    between atoms: _93  and  _95
REMARK   42  A    between atoms: _95  and  _96
REMARK   43  A    between atoms: _98  and  _100
REMARK   44  A    between atoms: _100  and  _101
REMARK   45  A    between atoms: _100  and  _103
REMARK   46  A    between atoms: _103  and  _104
REMARK   47  A    between atoms: _106  and  _108
REMARK   48  A    between atoms: _108  and  _109
REMARK   49  A    between atoms: _108  and  _111
REMARK   50  A    between atoms: _111  and  _112
REMARK   51  A    between atoms: _114  and  _116
REMARK   52  A    between atoms: _116  and  _117
REMARK   53  A    between atoms: _116  and  _119
REMARK   54  A    between atoms: _119  and  _120
REMARK   55  A    between atoms: _125  and  _127
REMARK   56  A    between atoms: _127  and  _128
REMARK   57  A    between atoms: _127  and  _130
REMARK   58  A    between atoms: _130  and  _131
REMARK   59  A    between atoms: _136  and  _137
REMARK   60  A    between atoms: _139  and  _141
REMARK   61  A    between atoms: _141  and  _142
REMARK   62  A    between atoms: _141  and  _144
REMARK   63  A    between atoms: _148  and  _149
REMARK   64  A    between atoms: _154  and  _156
REMARK   65  A    between atoms: _156  and  _157
REMARK   66  A    between atoms: _156  and  _159
REMARK   67  A    between atoms: _159  and  _160
REMARK   68  A    between atoms: _165  and  _166
REMARK   69  A    between atoms: _168  and  _170
REMARK   70  A    between atoms: _170  and  _171
REMARK   71  A    between atoms: _170  and  _173
REMARK   72  A    between atoms: _173  and  _174
REMARK   73  A    between atoms: _177  and  _179
REMARK   74  A    between atoms: _179  and  _180
REMARK   75  A    between atoms: _179  and  _182
REMARK   76  A    between atoms: _182  and  _183
REMARK   77  A    between atoms: _183  and  _184
REMARK   78  A    between atoms: _189  and  _191
REMARK   79  A    between atoms: _191  and  _192
REMARK   80  A    between atoms: _194  and  _196
REMARK   81  A    between atoms: _196  and  _197
REMARK   82  A    between atoms: _196  and  _199
REMARK   83  A    between atoms: _199  and  _200
REMARK   84  A    between atoms: _200  and  _201
REMARK   85  A    between atoms: _201  and  _202
REMARK   86  A    between atoms: _202  and  _203
REMARK   87  A    between atoms: _207  and  _209
REMARK   88  A    between atoms: _209  and  _210
REMARK   89  A    between atoms: _209  and  _212
REMARK   90  A    between atoms: _212  and  _213
REMARK   91  A    between atoms: _223  and  _225
REMARK   92  A    between atoms: _225  and  _226
REMARK   93  A    between atoms: _225  and  _228
REMARK   94  A    between atoms: _228  and  _229
REMARK   95  A    between atoms: _232  and  _234
REMARK   96  A    between atoms: _234  and  _235
REMARK   97  A    between atoms: _234  and  _237
REMARK   98  A    between atoms: _237  and  _238
REMARK   99  A    between atoms: _238  and  _239
REMARK  100  A    between atoms: _239  and  _240
REMARK  101  A    between atoms: _240  and  _241
REMARK  102  A    between atoms: _245  and  _247
REMARK  103  A    between atoms: _247  and  _248
REMARK  104  A    between atoms: _247  and  _250
REMARK  105  A    between atoms: _250  and  _251
REMARK  106  A    between atoms: _257  and  _259
REMARK  107  A    between atoms: _259  and  _260
REMARK  108  A    between atoms: _259  and  _262
REMARK  109  A    between atoms: _262  and  _263
REMARK  110  A    between atoms: _269  and  _271
REMARK  111  A    between atoms: _271  and  _272
REMARK  112  A    between atoms: _271  and  _274
REMARK  113  A    between atoms: _274  and  _275
REMARK  114  A    between atoms: _278  and  _280
REMARK  115  A    between atoms: _280  and  _281
REMARK  116  A    between atoms: _280  and  _283
REMARK  117  A    between atoms: _283  and  _284
REMARK  118  A    between atoms: _286  and  _288
REMARK  119  A    between atoms: _288  and  _289
REMARK  120  A    between atoms: _288  and  _291
REMARK  121  A    between atoms: _291  and  _292
REMARK  122  A    between atoms: _302  and  _304
REMARK  123  A    between atoms: _304  and  _305
REMARK  124  A    between atoms: _307  and  _309
REMARK  125  A    between atoms: _309  and  _310
REMARK  126  A    between atoms: _309  and  _312
REMARK  127  A    between atoms: _312  and  _313
REMARK  128  A    between atoms: _316  and  _318
REMARK  129  A    between atoms: _318  and  _319
REMARK  130  A    between atoms: _318  and  _321
REMARK  131  A    between atoms: _321  and  _322
REMARK  132  A    between atoms: _325  and  _327
REMARK  133  A    between atoms: _327  and  _328
REMARK  134  A    between atoms: _327  and  _330
REMARK  135  A    between atoms: _330  and  _331
REMARK  136  A    between atoms: _334  and  _336
REMARK  137  A    between atoms: _336  and  _337
REMARK  138  A    between atoms: _340  and  _342
REMARK  139  A    between atoms: _342  and  _343
REMARK  140  A    between atoms: _342  and  _345
REMARK  141  A    between atoms: _345  and  _346
REMARK  142  A    between atoms: _351  and  _352
REMARK  143  A    between atoms: _354  and  _356
REMARK  144  A    between atoms: _356  and  _357
REMARK  145  A    between atoms: _360  and  _362
REMARK  146  A    between atoms: _362  and  _363
REMARK  147  A    between atoms: _362  and  _365
REMARK  148  A    between atoms: _365  and  _366
REMARK  149  A    between atoms: _366  and  _367
REMARK  150  A    between atoms: _370  and  _372
REMARK  151  A    between atoms: _372  and  _373
REMARK  152  A    between atoms: _372  and  _375
REMARK  153  A    between atoms: _375  and  _376
REMARK  154  A    between atoms: _379  and  _381
REMARK  155  A    between atoms: _381  and  _382
REMARK  156  A    between atoms: _385  and  _387
REMARK  157  A    between atoms: _387  and  _388
REMARK  158  A    between atoms: _387  and  _390
REMARK  159  A    between atoms: _390  and  _391
REMARK  160  A    between atoms: _391  and  _392
REMARK  161  A    between atoms: _392  and  _393
REMARK  162  A    between atoms: _403  and  _404
REMARK  163  A    between atoms: _409  and  _411
REMARK  164  A    between atoms: _411  and  _412
REMARK  165  A    between atoms: _411  and  _414
REMARK  166  A    between atoms: _414  and  _415
REMARK  167  A    between atoms: _418  and  _420
REMARK  168  A    between atoms: _420  and  _421
REMARK  169  A    between atoms: _420  and  _423
REMARK  170  A    between atoms: _423  and  _424
REMARK  171  A    between atoms: _427  and  _429
REMARK  172  A    between atoms: _429  and  _430
REMARK  173  A    between atoms: _429  and  _432
REMARK  174  A    between atoms: _432  and  _433
REMARK  175  A    between atoms: _433  and  _434
REMARK  176  A    between atoms: _434  and  _435
REMARK  177  A    between atoms: _444  and  _446
REMARK  178  A    between atoms: _446  and  _447
REMARK  179  A    between atoms: _446  and  _449
REMARK  180  A    between atoms: _449  and  _450
REMARK  181  A    between atoms: _460  and  _462
REMARK  182  A    between atoms: _462  and  _463
REMARK  183  A    between atoms: _462  and  _465
REMARK  184  A    between atoms: _465  and  _466
REMARK  185  A    between atoms: _471  and  _472
REMARK  186  A    between atoms: _474  and  _476
REMARK  187  A    between atoms: _476  and  _477
REMARK  188  A    between atoms: _476  and  _479
REMARK  189  A    between atoms: _479  and  _480
REMARK  190  A    between atoms: _480  and  _481
REMARK  191  A    between atoms: _481  and  _482
REMARK  192  A    between atoms: _482  and  _483
REMARK  193  A    between atoms: _487  and  _489
REMARK  194  A    between atoms: _489  and  _490
REMARK  195  A    between atoms: _489  and  _492
REMARK  196  A    between atoms: _492  and  _493
REMARK  197  A    between atoms: _496  and  _498
REMARK  198  A    between atoms: _498  and  _499
REMARK  199  A    between atoms: _498  and  _501
REMARK  200  A    between atoms: _504  and  _506
REMARK  201  A    between atoms: _506  and  _507
REMARK  202  A    between atoms: _506  and  _509
REMARK  203  A    between atoms: _509  and  _510
REMARK  204  A    between atoms: _513  and  _515
REMARK  205  A    between atoms: _515  and  _516
REMARK  206  A    between atoms: _515  and  _518
REMARK  207  A    between atoms: _518  and  _519
REMARK  208  A    between atoms: _521  and  _523
REMARK  209  A    between atoms: _523  and  _524
REMARK  210  A    between atoms: _526  and  _528
REMARK  211  A    between atoms: _528  and  _529
REMARK  212  A    between atoms: _528  and  _531
REMARK  213  A    between atoms: _531  and  _532
REMARK  214  A    between atoms: _535  and  _537
REMARK  215  A    between atoms: _537  and  _538
REMARK  216  A    between atoms: _537  and  _540
REMARK  217  A    between atoms: _540  and  _541
REMARK  218  A    between atoms: _544  and  _546
REMARK  219  A    between atoms: _546  and  _547
REMARK  220  A    between atoms: _546  and  _549
REMARK  221  A    between atoms: _549  and  _550
REMARK  222  A    between atoms: _555  and  _557
REMARK  223  A    between atoms: _557  and  _558
REMARK  224  A    between atoms: _557  and  _560
REMARK  225  A    between atoms: _560  and  _561
REMARK  226  A    between atoms: _564  and  _566
REMARK  227  A    between atoms: _566  and  _567
REMARK  228  A    between atoms: _566  and  _569
REMARK  229  A    between atoms: _569  and  _570
REMARK  230  A    between atoms: _570  and  _571
REMARK  231  A    between atoms: _571  and  _572
REMARK  232  A    between atoms: _581  and  _583
REMARK  233  A    between atoms: _583  and  _584
REMARK  234  A    between atoms: _586  and  _588
REMARK  235  A    between atoms: _588  and  _589
REMARK  236  A    between atoms: _588  and  _591
REMARK  237  A    between atoms: _591  and  _592
REMARK  238  A    between atoms: _592  and  _593
REMARK  239  A    between atoms: _596  and  _598
REMARK  240  A    between atoms: _598  and  _599
REMARK  241  A    between atoms: _598  and  _601
REMARK  242  A    between atoms: _601  and  _602
REMARK  243  A    between atoms: _602  and  _603
REMARK  244  A    between atoms: _603  and  _604
REMARK  245  A    between atoms: _614  and  _615
REMARK  246  A    between atoms: _620  and  _622
REMARK  247  A    between atoms: _622  and  _623
REMARK  248  A    between atoms: _622  and  _625
REMARK  249  A    between atoms: _628  and  _630
REMARK  250  A    between atoms: _630  and  _631
REMARK  251  A    between atoms: _630  and  _633
REMARK  252  A    between atoms: _633  and  _634
REMARK  253  A    between atoms: _634  and  _635
REMARK  254  A    between atoms: _638  and  _640
REMARK  255  A    between atoms: _640  and  _641
REMARK  256  A    between atoms: _640  and  _643
REMARK  257  A    between atoms: _643  and  _644
REMARK  258  A    between atoms: _644  and  _645
REMARK  259  A    between atoms: _645  and  _646
REMARK  260  A    between atoms: _646  and  _647
REMARK  261  A    between atoms: _651  and  _653
REMARK  262  A    between atoms: _653  and  _654
REMARK  263  A    between atoms: _657  and  _659
REMARK  264  A    between atoms: _659  and  _660
REMARK  265  A    between atoms: _659  and  _662
REMARK  266  A    between atoms: _662  and  _663
REMARK  267  A    between atoms: _665  and  _667
REMARK  268  A    between atoms: _667  and  _668
REMARK  269  A    between atoms: _667  and  _670
REMARK  270  A    between atoms: _670  and  _671
REMARK  271  A    between atoms: _671  and  _672
REMARK  272  A    between atoms: _677  and  _679
REMARK  273  A    between atoms: _679  and  _680
REMARK  274  A    between atoms: _679  and  _682
REMARK  275  A    between atoms: _682  and  _683
REMARK  276  A    between atoms: _685  and  _687
REMARK  277  A    between atoms: _687  and  _688
REMARK  278  A    between atoms: _687  and  _690
REMARK  279  A    between atoms: _690  and  _691
REMARK  280  A    between atoms: _694  and  _696
REMARK  281  A    between atoms: _696  and  _697
REMARK  282  A    between atoms: _696  and  _699
REMARK  283  A    between atoms: _699  and  _700
REMARK  284  A    between atoms: _703  and  _705
REMARK  285  A    between atoms: _705  and  _706
REMARK  286  A    between atoms: _705  and  _708
REMARK  287  A    between atoms: _711  and  _713
REMARK  288  A    between atoms: _713  and  _714
REMARK  289  A    between atoms: _716  and  _718
REMARK  290  A    between atoms: _718  and  _719
REMARK  291  A    between atoms: _722  and  _724
REMARK  292  A    between atoms: _724  and  _725
REMARK  293  A    between atoms: _724  and  _727
REMARK                            x       y       z     vdW  Elec       q    Type
REMARK                         _______ _______ _______ _____ _____    ______ ____
ROOT
ATOM      1  O   HOH     1       5.860  31.009  19.722  0.00  0.00    +0.000 OA
ENDROOT
TORSDOF 0
REMARK  Name = ../refined-set-2016/1m4h/1m4h_pocket.pdb
REMARK  293 active torsions:
REMARK  status: ('A' for Active; 'I' for Inactive)
REMARK    1  A    between atoms: _1  and  _3
REMARK    2  A    between atoms: _3  and  _4
REMARK    3  A    between atoms: _3  and  _6
REMARK    4  A    between atoms: _6  and  _7
REMARK    5  A    between atoms: _7  and  _8
REMARK    6  A    between atoms: _8  and  _9
REMARK    7  A    between atoms: _9  and  _10
REMARK    8  A    between atoms: _14  and  _16
REMARK    9  A    between atoms: _16  and  _17
REMARK   10  A    between atoms: _16  and  _19
REMARK   11  A    between atoms: _19  and  _20
REMARK   12  A    between atoms: _22  and  _24
REMARK   13  A    between atoms: _24  and  _25
REMARK   14  A    between atoms: _27  and  _29
REMARK   15  A    between atoms: _29  and  _30
REMARK   16  A    between atoms: _29  and  _32
REMARK   17  A    between atoms: _32  and  _33
REMARK   18  A    between atoms: _33  and  _34
REMARK   19  A    between atoms: _39  and  _41
REMARK   20  A    between atoms: _41  and  _42
REMARK   21  A    between atoms: _44  and  _46
REMARK   22  A    between atoms: _46  and  _47
REMARK   23  A    between atoms: _46  and  _49
REMARK   24  A    between atoms: _49  and  _50
REMARK   25  A    between atoms: _55  and  _56
REMARK   26  A    between atoms: _58  and  _60
REMARK   27  A    between atoms: _60  and  _61
REMARK   28  A    between atoms: _60  and  _63
REMARK   29  A    between atoms: _63  and  _64
REMARK   30  A    between atoms: _67  and  _69
REMARK   31  A    between atoms: _69  and  _70
REMARK   32  A    between atoms: _69  and  _72
REMARK   33  A    between atoms: _75  and  _77
REMARK   34  A    between atoms: _77  and  _78
REMARK   35  A    between atoms: _77  and  _80
REMARK   36  A    between atoms: _80  and  _81
REMARK   37  A    between atoms: _84  and  _86
REMARK   38  A    between atoms: _86  and  _87
REMARK   39  A    between atoms: _86  and  _89
REMARK   40  A    between atoms: _89  and  _90
REMARK   41  A    between atoms: _93  and  _95
REMARK   42  A    between atoms: _95  and  _96
REMARK   43  A    between atoms: _98  and  _100
REMARK   44  A    between atoms: _100  and  _101
REMARK   45  A    between atoms: _100  and  _103
REMARK   46  A    between atoms: _103  and  _104
REMARK   47  A    between atoms: _106  and  _108
REMARK   48  A    between atoms: _108  and  _109
REMARK   49  A    between atoms: _108  and  _111
REMARK   50  A    between atoms: _111  and  _112
REMARK   51  A    between atoms: _114  and  _116
REMARK   52  A    between atoms: _116  and  _117
REMARK   53  A    between atoms: _116  and  _119
REMARK   54  A    between atoms: _119  and  _120
REMARK   55  A    between atoms: _125  and  _127
REMARK   56  A    between atoms: _127  and  _128
REMARK   57  A    between atoms: _127  and  _130
REMARK   58  A    between atoms: _130  and  _131
REMARK   59  A    between atoms: _136  and  _137
REMARK   60  A    between atoms: _139  and  _141
REMARK   61  A    between atoms: _141  and  _142
REMARK   62  A    between atoms: _141  and  _144
REMARK   63  A    between atoms: _148  and  _149
REMARK   64  A    between atoms: _154  and  _156
REMARK   65  A    between atoms: _156  and  _157
REMARK   66  A    between atoms: _156  and  _159
REMARK   67  A    between atoms: _159  and  _160
REMARK   68  A    between atoms: _165  and  _166
REMARK   69  A    between atoms: _168  and  _170
REMARK   70  A    between atoms: _170  and  _171
REMARK   71  A    between atoms: _170  and  _173
REMARK   72  A    between atoms: _173  and  _174
REMARK   73  A    between atoms: _177  and  _179
REMARK   74  A    between atoms: _179  and  _180
REMARK   75  A    between atoms: _179  and  _182
REMARK   76  A    between atoms: _182  and  _183
REMARK   77  A    between atoms: _183  and  _184
REMARK   78  A    between atoms: _189  and  _191
REMARK   79  A    between atoms: _191  and  _192
REMARK   80  A    between atoms: _194  and  _196
REMARK   81  A    between atoms: _196  and  _197
REMARK   82  A    between atoms: _196  and  _199
REMARK   83  A    between atoms: _199  and  _200
REMARK   84  A    between atoms: _200  and  _201
REMARK   85  A    between atoms: _201  and  _202
REMARK   86  A    between atoms: _202  and  _203
REMARK   87  A    between atoms: _207  and  _209
REMARK   88  A    between atoms: _209  and  _210
REMARK   89  A    between atoms: _209  and  _212
REMARK   90  A    between atoms: _212  and  _213
REMARK   91  A    between atoms: _223  and  _225
REMARK   92  A    between atoms: _225  and  _226
REMARK   93  A    between atoms: _225  and  _228
REMARK   94  A    between atoms: _228  and  _229
REMARK   95  A    between atoms: _232  and  _234
REMARK   96  A    between atoms: _234  and  _235
REMARK   97  A    between atoms: _234  and  _237
REMARK   98  A    between atoms: _237  and  _238
REMARK   99  A    between atoms: _238  and  _239
REMARK  100  A    between atoms: _239  and  _240
REMARK  101  A    between atoms: _240  and  _241
REMARK  102  A    between atoms: _245  and  _247
REMARK  103  A    between atoms: _247  and  _248
REMARK  104  A    between atoms: _247  and  _250
REMARK  105  A    between atoms: _250  and  _251
REMARK  106  A    between atoms: _257  and  _259
REMARK  107  A    between atoms: _259  and  _260
REMARK  108  A    between atoms: _259  and  _262
REMARK  109  A    between atoms: _262  and  _263
REMARK  110  A    between atoms: _269  and  _271
REMARK  111  A    between atoms: _271  and  _272
REMARK  112  A    between atoms: _271  and  _274
REMARK  113  A    between atoms: _274  and  _275
REMARK  114  A    between atoms: _278  and  _280
REMARK  115  A    between atoms: _280  and  _281
REMARK  116  A    between atoms: _280  and  _283
REMARK  117  A    between atoms: _283  and  _284
REMARK  118  A    between atoms: _286  and  _288
REMARK  119  A    between atoms: _288  and  _289
REMARK  120  A    between atoms: _288  and  _291
REMARK  121  A    between atoms: _291  and  _292
REMARK  122  A    between atoms: _302  and  _304
REMARK  123  A    between atoms: _304  and  _305
REMARK  124  A    between atoms: _307  and  _309
REMARK  125  A    between atoms: _309  and  _310
REMARK  126  A    between atoms: _309  and  _312
REMARK  127  A    between atoms: _312  and  _313
REMARK  128  A    between atoms: _316  and  _318
REMARK  129  A    between atoms: _318  and  _319
REMARK  130  A    between atoms: _318  and  _321
REMARK  131  A    between atoms: _321  and  _322
REMARK  132  A    between atoms: _325  and  _327
REMARK  133  A    between atoms: _327  and  _328
REMARK  134  A    between atoms: _327  and  _330
REMARK  135  A    between atoms: _330  and  _331
REMARK  136  A    between atoms: _334  and  _336
REMARK  137  A    between atoms: _336  and  _337
REMARK  138  A    between atoms: _340  and  _342
REMARK  139  A    between atoms: _342  and  _343
REMARK  140  A    between atoms: _342  and  _345
REMARK  141  A    between atoms: _345  and  _346
REMARK  142  A    between atoms: _351  and  _352
REMARK  143  A    between atoms: _354  and  _356
REMARK  144  A    between atoms: _356  and  _357
REMARK  145  A    between atoms: _360  and  _362
REMARK  146  A    between atoms: _362  and  _363
REMARK  147  A    between atoms: _362  and  _365
REMARK  148  A    between atoms: _365  and  _366
REMARK  149  A    between atoms: _366  and  _367
REMARK  150  A    between atoms: _370  and  _372
REMARK  151  A    between atoms: _372  and  _373
REMARK  152  A    between atoms: _372  and  _375
REMARK  153  A    between atoms: _375  and  _376
REMARK  154  A    between atoms: _379  and  _381
REMARK  155  A    between atoms: _381  and  _382
REMARK  156  A    between atoms: _385  and  _387
REMARK  157  A    between atoms: _387  and  _388
REMARK  158  A    between atoms: _387  and  _390
REMARK  159  A    between atoms: _390  and  _391
REMARK  160  A    between atoms: _391  and  _392
REMARK  161  A    between atoms: _392  and  _393
REMARK  162  A    between atoms: _403  and  _404
REMARK  163  A    between atoms: _409  and  _411
REMARK  164  A    between atoms: _411  and  _412
REMARK  165  A    between atoms: _411  and  _414
REMARK  166  A    between atoms: _414  and  _415
REMARK  167  A    between atoms: _418  and  _420
REMARK  168  A    between atoms: _420  and  _421
REMARK  169  A    between atoms: _420  and  _423
REMARK  170  A    between atoms: _423  and  _424
REMARK  171  A    between atoms: _427  and  _429
REMARK  172  A    between atoms: _429  and  _430
REMARK  173  A    between atoms: _429  and  _432
REMARK  174  A    between atoms: _432  and  _433
REMARK  175  A    between atoms: _433  and  _434
REMARK  176  A    between atoms: _434  and  _435
REMARK  177  A    between atoms: _444  and  _446
REMARK  178  A    between atoms: _446  and  _447
REMARK  179  A    between atoms: _446  and  _449
REMARK  180  A    between atoms: _449  and  _450
REMARK  181  A    between atoms: _460  and  _462
REMARK  182  A    between atoms: _462  and  _463
REMARK  183  A    between atoms: _462  and  _465
REMARK  184  A    between atoms: _465  and  _466
REMARK  185  A    between atoms: _471  and  _472
REMARK  186  A    between atoms: _474  and  _476
REMARK  187  A    between atoms: _476  and  _477
REMARK  188  A    between atoms: _476  and  _479
REMARK  189  A    between atoms: _479  and  _480
REMARK  190  A    between atoms: _480  and  _481
REMARK  191  A    between atoms: _481  and  _482
REMARK  192  A    between atoms: _482  and  _483
REMARK  193  A    between atoms: _487  and  _489
REMARK  194  A    between atoms: _489  and  _490
REMARK  195  A    between atoms: _489  and  _492
REMARK  196  A    between atoms: _492  and  _493
REMARK  197  A    between atoms: _496  and  _498
REMARK  198  A    between atoms: _498  and  _499
REMARK  199  A    between atoms: _498  and  _501
REMARK  200  A    between atoms: _504  and  _506
REMARK  201  A    between atoms: _506  and  _507
REMARK  202  A    between atoms: _506  and  _509
REMARK  203  A    between atoms: _509  and  _510
REMARK  204  A    between atoms: _513  and  _515
REMARK  205  A    between atoms: _515  and  _516
REMARK  206  A    between atoms: _515  and  _518
REMARK  207  A    between atoms: _518  and  _519
REMARK  208  A    between atoms: _521  and  _523
REMARK  209  A    between atoms: _523  and  _524
REMARK  210  A    between atoms: _526  and  _528
REMARK  211  A    between atoms: _528  and  _529
REMARK  212  A    between atoms: _528  and  _531
REMARK  213  A    between atoms: _531  and  _532
REMARK  214  A    between atoms: _535  and  _537
REMARK  215  A    between atoms: _537  and  _538
REMARK  216  A    between atoms: _537  and  _540
REMARK  217  A    between atoms: _540  and  _541
REMARK  218  A    between atoms: _544  and  _546
REMARK  219  A    between atoms: _546  and  _547
REMARK  220  A    between atoms: _546  and  _549
REMARK  221  A    between atoms: _549  and  _550
REMARK  222  A    between atoms: _555  and  _557
REMARK  223  A    between atoms: _557  and  _558
REMARK  224  A    between atoms: _557  and  _560
REMARK  225  A    between atoms: _560  and  _561
REMARK  226  A    between atoms: _564  and  _566
REMARK  227  A    between atoms: _566  and  _567
REMARK  228  A    between atoms: _566  and  _569
REMARK  229  A    between atoms: _569  and  _570
REMARK  230  A    between atoms: _570  and  _571
REMARK  231  A    between atoms: _571  and  _572
REMARK  232  A    between atoms: _581  and  _583
REMARK  233  A    between atoms: _583  and  _584
REMARK  234  A    between atoms: _586  and  _588
REMARK  235  A    between atoms: _588  and  _589
REMARK  236  A    between atoms: _588  and  _591
REMARK  237  A    between atoms: _591  and  _592
REMARK  238  A    between atoms: _592  and  _593
REMARK  239  A    between atoms: _596  and  _598
REMARK  240  A    between atoms: _598  and  _599
REMARK  241  A    between atoms: _598  and  _601
REMARK  242  A    between atoms: _601  and  _602
REMARK  243  A    between atoms: _602  and  _603
REMARK  244  A    between atoms: _603  and  _604
REMARK  245  A    between atoms: _614  and  _615
REMARK  246  A    between atoms: _620  and  _622
REMARK  247  A    between atoms: _622  and  _623
REMARK  248  A    between atoms: _622  and  _625
REMARK  249  A    between atoms: _628  and  _630
REMARK  250  A    between atoms: _630  and  _631
REMARK  251  A    between atoms: _630  and  _633
REMARK  252  A    between atoms: _633  and  _634
REMARK  253  A    between atoms: _634  and  _635
REMARK  254  A    between atoms: _638  and  _640
REMARK  255  A    between atoms: _640  and  _641
REMARK  256  A    between atoms: _640  and  _643
REMARK  257  A    between atoms: _643  and  _644
REMARK  258  A    between atoms: _644  and  _645
REMARK  259  A    between atoms: _645  and  _646
REMARK  260  A    between atoms: _646  and  _647
REMARK  261  A    between atoms: _651  and  _653
REMARK  262  A    between atoms: _653  and  _654
REMARK  263  A    between atoms: _657  and  _659
REMARK  264  A    between atoms: _659  and  _660
REMARK  265  A    between atoms: _659  and  _662
REMARK  266  A    between atoms: _662  and  _663
REMARK  267  A    between atoms: _665  and  _667
REMARK  268  A    between atoms: _667  and  _668
REMARK  269  A    between atoms: _667  and  _670
REMARK  270  A    between atoms: _670  and  _671
REMARK  271  A    between atoms: _671  and  _672
REMARK  272  A    between atoms: _677  and  _679
REMARK  273  A    between atoms: _679  and  _680
REMARK  274  A    between atoms: _679  and  _682
REMARK  275  A    between atoms: _682  and  _683
REMARK  276  A    between atoms: _685  and  _687
REMARK  277  A    between atoms: _687  and  _688
REMARK  278  A    between atoms: _687  and  _690
REMARK  279  A    between atoms: _690  and  _691
REMARK  280  A    between atoms: _694  and  _696
REMARK  281  A    between atoms: _696  and  _697
REMARK  282  A    between atoms: _696  and  _699
REMARK  283  A    between atoms: _699  and  _700
REMARK  284  A    between atoms: _703  and  _705
REMARK  285  A    between atoms: _705  and  _706
REMARK  286  A    between atoms: _705  and  _708
REMARK  287  A    between atoms: _711  and  _713
REMARK  288  A    between atoms: _713  and  _714
REMARK  289  A    between atoms: _716  and  _718
REMARK  290  A    between atoms: _718  and  _719
REMARK  291  A    between atoms: _722  and  _724
REMARK  292  A    between atoms: _724  and  _725
REMARK  293  A    between atoms: _724  and  _727
REMARK                            x       y       z     vdW  Elec       q    Type
REMARK                         _______ _______ _______ _____ _____    ______ ____
ROOT
ATOM      1  O   HOH     1      12.995  23.969  26.174  0.00  0.00    +0.000 OA
ENDROOT
TORSDOF 0
REMARK  Name = ../refined-set-2016/1m4h/1m4h_pocket.pdb
REMARK  293 active torsions:
REMARK  status: ('A' for Active; 'I' for Inactive)
REMARK    1  A    between atoms: _1  and  _3
REMARK    2  A    between atoms: _3  and  _4
REMARK    3  A    between atoms: _3  and  _6
REMARK    4  A    between atoms: _6  and  _7
REMARK    5  A    between atoms: _7  and  _8
REMARK    6  A    between atoms: _8  and  _9
REMARK    7  A    between atoms: _9  and  _10
REMARK    8  A    between atoms: _14  and  _16
REMARK    9  A    between atoms: _16  and  _17
REMARK   10  A    between atoms: _16  and  _19
REMARK   11  A    between atoms: _19  and  _20
REMARK   12  A    between atoms: _22  and  _24
REMARK   13  A    between atoms: _24  and  _25
REMARK   14  A    between atoms: _27  and  _29
REMARK   15  A    between atoms: _29  and  _30
REMARK   16  A    between atoms: _29  and  _32
REMARK   17  A    between atoms: _32  and  _33
REMARK   18  A    between atoms: _33  and  _34
REMARK   19  A    between atoms: _39  and  _41
REMARK   20  A    between atoms: _41  and  _42
REMARK   21  A    between atoms: _44  and  _46
REMARK   22  A    between atoms: _46  and  _47
REMARK   23  A    between atoms: _46  and  _49
REMARK   24  A    between atoms: _49  and  _50
REMARK   25  A    between atoms: _55  and  _56
REMARK   26  A    between atoms: _58  and  _60
REMARK   27  A    between atoms: _60  and  _61
REMARK   28  A    between atoms: _60  and  _63
REMARK   29  A    between atoms: _63  and  _64
REMARK   30  A    between atoms: _67  and  _69
REMARK   31  A    between atoms: _69  and  _70
REMARK   32  A    between atoms: _69  and  _72
REMARK   33  A    between atoms: _75  and  _77
REMARK   34  A    between atoms: _77  and  _78
REMARK   35  A    between atoms: _77  and  _80
REMARK   36  A    between atoms: _80  and  _81
REMARK   37  A    between atoms: _84  and  _86
REMARK   38  A    between atoms: _86  and  _87
REMARK   39  A    between atoms: _86  and  _89
REMARK   40  A    between atoms: _89  and  _90
REMARK   41  A    between atoms: _93  and  _95
REMARK   42  A    between atoms: _95  and  _96
REMARK   43  A    between atoms: _98  and  _100
REMARK   44  A    between atoms: _100  and  _101
REMARK   45  A    between atoms: _100  and  _103
REMARK   46  A    between atoms: _103  and  _104
REMARK   47  A    between atoms: _106  and  _108
REMARK   48  A    between atoms: _108  and  _109
REMARK   49  A    between atoms: _108  and  _111
REMARK   50  A    between atoms: _111  and  _112
REMARK   51  A    between atoms: _114  and  _116
REMARK   52  A    between atoms: _116  and  _117
REMARK   53  A    between atoms: _116  and  _119
REMARK   54  A    between atoms: _119  and  _120
REMARK   55  A    between atoms: _125  and  _127
REMARK   56  A    between atoms: _127  and  _128
REMARK   57  A    between atoms: _127  and  _130
REMARK   58  A    between atoms: _130  and  _131
REMARK   59  A    between atoms: _136  and  _137
REMARK   60  A    between atoms: _139  and  _141
REMARK   61  A    between atoms: _141  and  _142
REMARK   62  A    between atoms: _141  and  _144
REMARK   63  A    between atoms: _148  and  _149
REMARK   64  A    between atoms: _154  and  _156
REMARK   65  A    between atoms: _156  and  _157
REMARK   66  A    between atoms: _156  and  _159
REMARK   67  A    between atoms: _159  and  _160
REMARK   68  A    between atoms: _165  and  _166
REMARK   69  A    between atoms: _168  and  _170
REMARK   70  A    between atoms: _170  and  _171
REMARK   71  A    between atoms: _170  and  _173
REMARK   72  A    between atoms: _173  and  _174
REMARK   73  A    between atoms: _177  and  _179
REMARK   74  A    between atoms: _179  and  _180
REMARK   75  A    between atoms: _179  and  _182
REMARK   76  A    between atoms: _182  and  _183
REMARK   77  A    between atoms: _183  and  _184
REMARK   78  A    between atoms: _189  and  _191
REMARK   79  A    between atoms: _191  and  _192
REMARK   80  A    between atoms: _194  and  _196
REMARK   81  A    between atoms: _196  and  _197
REMARK   82  A    between atoms: _196  and  _199
REMARK   83  A    between atoms: _199  and  _200
REMARK   84  A    between atoms: _200  and  _201
REMARK   85  A    between atoms: _201  and  _202
REMARK   86  A    between atoms: _202  and  _203
REMARK   87  A    between atoms: _207  and  _209
REMARK   88  A    between atoms: _209  and  _210
REMARK   89  A    between atoms: _209  and  _212
REMARK   90  A    between atoms: _212  and  _213
REMARK   91  A    between atoms: _223  and  _225
REMARK   92  A    between atoms: _225  and  _226
REMARK   93  A    between atoms: _225  and  _228
REMARK   94  A    between atoms: _228  and  _229
REMARK   95  A    between atoms: _232  and  _234
REMARK   96  A    between atoms: _234  and  _235
REMARK   97  A    between atoms: _234  and  _237
REMARK   98  A    between atoms: _237  and  _238
REMARK   99  A    between atoms: _238  and  _239
REMARK  100  A    between atoms: _239  and  _240
REMARK  101  A    between atoms: _240  and  _241
REMARK  102  A    between atoms: _245  and  _247
REMARK  103  A    between atoms: _247  and  _248
REMARK  104  A    between atoms: _247  and  _250
REMARK  105  A    between atoms: _250  and  _251
REMARK  106  A    between atoms: _257  and  _259
REMARK  107  A    between atoms: _259  and  _260
REMARK  108  A    between atoms: _259  and  _262
REMARK  109  A    between atoms: _262  and  _263
REMARK  110  A    between atoms: _269  and  _271
REMARK  111  A    between atoms: _271  and  _272
REMARK  112  A    between atoms: _271  and  _274
REMARK  113  A    between atoms: _274  and  _275
REMARK  114  A    between atoms: _278  and  _280
REMARK  115  A    between atoms: _280  and  _281
REMARK  116  A    between atoms: _280  and  _283
REMARK  117  A    between atoms: _283  and  _284
REMARK  118  A    between atoms: _286  and  _288
REMARK  119  A    between atoms: _288  and  _289
REMARK  120  A    between atoms: _288  and  _291
REMARK  121  A    between atoms: _291  and  _292
REMARK  122  A    between atoms: _302  and  _304
REMARK  123  A    between atoms: _304  and  _305
REMARK  124  A    between atoms: _307  and  _309
REMARK  125  A    between atoms: _309  and  _310
REMARK  126  A    between atoms: _309  and  _312
REMARK  127  A    between atoms: _312  and  _313
REMARK  128  A    between atoms: _316  and  _318
REMARK  129  A    between atoms: _318  and  _319
REMARK  130  A    between atoms: _318  and  _321
REMARK  131  A    between atoms: _321  and  _322
REMARK  132  A    between atoms: _325  and  _327
REMARK  133  A    between atoms: _327  and  _328
REMARK  134  A    between atoms: _327  and  _330
REMARK  135  A    between atoms: _330  and  _331
REMARK  136  A    between atoms: _334  and  _336
REMARK  137  A    between atoms: _336  and  _337
REMARK  138  A    between atoms: _340  and  _342
REMARK  139  A    between atoms: _342  and  _343
REMARK  140  A    between atoms: _342  and  _345
REMARK  141  A    between atoms: _345  and  _346
REMARK  142  A    between atoms: _351  and  _352
REMARK  143  A    between atoms: _354  and  _356
REMARK  144  A    between atoms: _356  and  _357
REMARK  145  A    between atoms: _360  and  _362
REMARK  146  A    between atoms: _362  and  _363
REMARK  147  A    between atoms: _362  and  _365
REMARK  148  A    between atoms: _365  and  _366
REMARK  149  A    between atoms: _366  and  _367
REMARK  150  A    between atoms: _370  and  _372
REMARK  151  A    between atoms: _372  and  _373
REMARK  152  A    between atoms: _372  and  _375
REMARK  153  A    between atoms: _375  and  _376
REMARK  154  A    between atoms: _379  and  _381
REMARK  155  A    between atoms: _381  and  _382
REMARK  156  A    between atoms: _385  and  _387
REMARK  157  A    between atoms: _387  and  _388
REMARK  158  A    between atoms: _387  and  _390
REMARK  159  A    between atoms: _390  and  _391
REMARK  160  A    between atoms: _391  and  _392
REMARK  161  A    between atoms: _392  and  _393
REMARK  162  A    between atoms: _403  and  _404
REMARK  163  A    between atoms: _409  and  _411
REMARK  164  A    between atoms: _411  and  _412
REMARK  165  A    between atoms: _411  and  _414
REMARK  166  A    between atoms: _414  and  _415
REMARK  167  A    between atoms: _418  and  _420
REMARK  168  A    between atoms: _420  and  _421
REMARK  169  A    between atoms: _420  and  _423
REMARK  170  A    between atoms: _423  and  _424
REMARK  171  A    between atoms: _427  and  _429
REMARK  172  A    between atoms: _429  and  _430
REMARK  173  A    between atoms: _429  and  _432
REMARK  174  A    between atoms: _432  and  _433
REMARK  175  A    between atoms: _433  and  _434
REMARK  176  A    between atoms: _434  and  _435
REMARK  177  A    between atoms: _444  and  _446
REMARK  178  A    between atoms: _446  and  _447
REMARK  179  A    between atoms: _446  and  _449
REMARK  180  A    between atoms: _449  and  _450
REMARK  181  A    between atoms: _460  and  _462
REMARK  182  A    between atoms: _462  and  _463
REMARK  183  A    between atoms: _462  and  _465
REMARK  184  A    between atoms: _465  and  _466
REMARK  185  A    between atoms: _471  and  _472
REMARK  186  A    between atoms: _474  and  _476
REMARK  187  A    between atoms: _476  and  _477
REMARK  188  A    between atoms: _476  and  _479
REMARK  189  A    between atoms: _479  and  _480
REMARK  190  A    between atoms: _480  and  _481
REMARK  191  A    between atoms: _481  and  _482
REMARK  192  A    between atoms: _482  and  _483
REMARK  193  A    between atoms: _487  and  _489
REMARK  194  A    between atoms: _489  and  _490
REMARK  195  A    between atoms: _489  and  _492
REMARK  196  A    between atoms: _492  and  _493
REMARK  197  A    between atoms: _496  and  _498
REMARK  198  A    between atoms: _498  and  _499
REMARK  199  A    between atoms: _498  and  _501
REMARK  200  A    between atoms: _504  and  _506
REMARK  201  A    between atoms: _506  and  _507
REMARK  202  A    between atoms: _506  and  _509
REMARK  203  A    between atoms: _509  and  _510
REMARK  204  A    between atoms: _513  and  _515
REMARK  205  A    between atoms: _515  and  _516
REMARK  206  A    between atoms: _515  and  _518
REMARK  207  A    between atoms: _518  and  _519
REMARK  208  A    between atoms: _521  and  _523
REMARK  209  A    between atoms: _523  and  _524
REMARK  210  A    between atoms: _526  and  _528
REMARK  211  A    between atoms: _528  and  _529
REMARK  212  A    between atoms: _528  and  _531
REMARK  213  A    between atoms: _531  and  _532
REMARK  214  A    between atoms: _535  and  _537
REMARK  215  A    between atoms: _537  and  _538
REMARK  216  A    between atoms: _537  and  _540
REMARK  217  A    between atoms: _540  and  _541
REMARK  218  A    between atoms: _544  and  _546
REMARK  219  A    between atoms: _546  and  _547
REMARK  220  A    between atoms: _546  and  _549
REMARK  221  A    between atoms: _549  and  _550
REMARK  222  A    between atoms: _555  and  _557
REMARK  223  A    between atoms: _557  and  _558
REMARK  224  A    between atoms: _557  and  _560
REMARK  225  A    between atoms: _560  and  _561
REMARK  226  A    between atoms: _564  and  _566
REMARK  227  A    between atoms: _566  and  _567
REMARK  228  A    between atoms: _566  and  _569
REMARK  229  A    between atoms: _569  and  _570
REMARK  230  A    between atoms: _570  and  _571
REMARK  231  A    between atoms: _571  and  _572
REMARK  232  A    between atoms: _581  and  _583
REMARK  233  A    between atoms: _583  and  _584
REMARK  234  A    between atoms: _586  and  _588
REMARK  235  A    between atoms: _588  and  _589
REMARK  236  A    between atoms: _588  and  _591
REMARK  237  A    between atoms: _591  and  _592
REMARK  238  A    between atoms: _592  and  _593
REMARK  239  A    between atoms: _596  and  _598
REMARK  240  A    between atoms: _598  and  _599
REMARK  241  A    between atoms: _598  and  _601
REMARK  242  A    between atoms: _601  and  _602
REMARK  243  A    between atoms: _602  and  _603
REMARK  244  A    between atoms: _603  and  _604
REMARK  245  A    between atoms: _614  and  _615
REMARK  246  A    between atoms: _620  and  _622
REMARK  247  A    between atoms: _622  and  _623
REMARK  248  A    between atoms: _622  and  _625
REMARK  249  A    between atoms: _628  and  _630
REMARK  250  A    between atoms: _630  and  _631
REMARK  251  A    between atoms: _630  and  _633
REMARK  252  A    between atoms: _633  and  _634
REMARK  253  A    between atoms: _634  and  _635
REMARK  254  A    between atoms: _638  and  _640
REMARK  255  A    between atoms: _640  and  _641
REMARK  256  A    between atoms: _640  and  _643
REMARK  257  A    between atoms: _643  and  _644
REMARK  258  A    between atoms: _644  and  _645
REMARK  259  A    between atoms: _645  and  _646
REMARK  260  A    between atoms: _646  and  _647
REMARK  261  A    between atoms: _651  and  _653
REMARK  262  A    between atoms: _653  and  _654
REMARK  263  A    between atoms: _657  and  _659
REMARK  264  A    between atoms: _659  and  _660
REMARK  265  A    between atoms: _659  and  _662
REMARK  266  A    between atoms: _662  and  _663
REMARK  267  A    between atoms: _665  and  _667
REMARK  268  A    between atoms: _667  and  _668
REMARK  269  A    between atoms: _667  and  _670
REMARK  270  A    between atoms: _670  and  _671
REMARK  271  A    between atoms: _671  and  _672
REMARK  272  A    between atoms: _677  and  _679
REMARK  273  A    between atoms: _679  and  _680
REMARK  274  A    between atoms: _679  and  _682
REMARK  275  A    between atoms: _682  and  _683
REMARK  276  A    between atoms: _685  and  _687
REMARK  277  A    between atoms: _687  and  _688
REMARK  278  A    between atoms: _687  and  _690
REMARK  279  A    between atoms: _690  and  _691
REMARK  280  A    between atoms: _694  and  _696
REMARK  281  A    between atoms: _696  and  _697
REMARK  282  A    between atoms: _696  and  _699
REMARK  283  A    between atoms: _699  and  _700
REMARK  284  A    between atoms: _703  and  _705
REMARK  285  A    between atoms: _705  and  _706
REMARK  286  A    between atoms: _705  and  _708
REMARK  287  A    between atoms: _711  and  _713
REMARK  288  A    between atoms: _713  and  _714
REMARK  289  A    between atoms: _716  and  _718
REMARK  290  A    between atoms: _718  and  _719
REMARK  291  A    between atoms: _722  and  _724
REMARK  292  A    between atoms: _724  and  _725
REMARK  293  A    between atoms: _724  and  _727
REMARK                            x       y       z     vdW  Elec       q    Type
REMARK                         _______ _______ _______ _____ _____    ______ ____
ROOT
ATOM      1  O   HOH     1      10.210  26.265  23.959  0.00  0.00    +0.000 OA
ENDROOT
TORSDOF 0
REMARK  Name = ../refined-set-2016/1m4h/1m4h_pocket.pdb
REMARK  293 active torsions:
REMARK  status: ('A' for Active; 'I' for Inactive)
REMARK    1  A    between atoms: _1  and  _3
REMARK    2  A    between atoms: _3  and  _4
REMARK    3  A    between atoms: _3  and  _6
REMARK    4  A    between atoms: _6  and  _7
REMARK    5  A    between atoms: _7  and  _8
REMARK    6  A    between atoms: _8  and  _9
REMARK    7  A    between atoms: _9  and  _10
REMARK    8  A    between atoms: _14  and  _16
REMARK    9  A    between atoms: _16  and  _17
REMARK   10  A    between atoms: _16  and  _19
REMARK   11  A    between atoms: _19  and  _20
REMARK   12  A    between atoms: _22  and  _24
REMARK   13  A    between atoms: _24  and  _25
REMARK   14  A    between atoms: _27  and  _29
REMARK   15  A    between atoms: _29  and  _30
REMARK   16  A    between atoms: _29  and  _32
REMARK   17  A    between atoms: _32  and  _33
REMARK   18  A    between atoms: _33  and  _34
REMARK   19  A    between atoms: _39  and  _41
REMARK   20  A    between atoms: _41  and  _42
REMARK   21  A    between atoms: _44  and  _46
REMARK   22  A    between atoms: _46  and  _47
REMARK   23  A    between atoms: _46  and  _49
REMARK   24  A    between atoms: _49  and  _50
REMARK   25  A    between atoms: _55  and  _56
REMARK   26  A    between atoms: _58  and  _60
REMARK   27  A    between atoms: _60  and  _61
REMARK   28  A    between atoms: _60  and  _63
REMARK   29  A    between atoms: _63  and  _64
REMARK   30  A    between atoms: _67  and  _69
REMARK   31  A    between atoms: _69  and  _70
REMARK   32  A    between atoms: _69  and  _72
REMARK   33  A    between atoms: _75  and  _77
REMARK   34  A    between atoms: _77  and  _78
REMARK   35  A    between atoms: _77  and  _80
REMARK   36  A    between atoms: _80  and  _81
REMARK   37  A    between atoms: _84  and  _86
REMARK   38  A    between atoms: _86  and  _87
REMARK   39  A    between atoms: _86  and  _89
REMARK   40  A    between atoms: _89  and  _90
REMARK   41  A    between atoms: _93  and  _95
REMARK   42  A    between atoms: _95  and  _96
REMARK   43  A    between atoms: _98  and  _100
REMARK   44  A    between atoms: _100  and  _101
REMARK   45  A    between atoms: _100  and  _103
REMARK   46  A    between atoms: _103  and  _104
REMARK   47  A    between atoms: _106  and  _108
REMARK   48  A    between atoms: _108  and  _109
REMARK   49  A    between atoms: _108  and  _111
REMARK   50  A    between atoms: _111  and  _112
REMARK   51  A    between atoms: _114  and  _116
REMARK   52  A    between atoms: _116  and  _117
REMARK   53  A    between atoms: _116  and  _119
REMARK   54  A    between atoms: _119  and  _120
REMARK   55  A    between atoms: _125  and  _127
REMARK   56  A    between atoms: _127  and  _128
REMARK   57  A    between atoms: _127  and  _130
REMARK   58  A    between atoms: _130  and  _131
REMARK   59  A    between atoms: _136  and  _137
REMARK   60  A    between atoms: _139  and  _141
REMARK   61  A    between atoms: _141  and  _142
REMARK   62  A    between atoms: _141  and  _144
REMARK   63  A    between atoms: _148  and  _149
REMARK   64  A    between atoms: _154  and  _156
REMARK   65  A    between atoms: _156  and  _157
REMARK   66  A    between atoms: _156  and  _159
REMARK   67  A    between atoms: _159  and  _160
REMARK   68  A    between atoms: _165  and  _166
REMARK   69  A    between atoms: _168  and  _170
REMARK   70  A    between atoms: _170  and  _171
REMARK   71  A    between atoms: _170  and  _173
REMARK   72  A    between atoms: _173  and  _174
REMARK   73  A    between atoms: _177  and  _179
REMARK   74  A    between atoms: _179  and  _180
REMARK   75  A    between atoms: _179  and  _182
REMARK   76  A    between atoms: _182  and  _183
REMARK   77  A    between atoms: _183  and  _184
REMARK   78  A    between atoms: _189  and  _191
REMARK   79  A    between atoms: _191  and  _192
REMARK   80  A    between atoms: _194  and  _196
REMARK   81  A    between atoms: _196  and  _197
REMARK   82  A    between atoms: _196  and  _199
REMARK   83  A    between atoms: _199  and  _200
REMARK   84  A    between atoms: _200  and  _201
REMARK   85  A    between atoms: _201  and  _202
REMARK   86  A    between atoms: _202  and  _203
REMARK   87  A    between atoms: _207  and  _209
REMARK   88  A    between atoms: _209  and  _210
REMARK   89  A    between atoms: _209  and  _212
REMARK   90  A    between atoms: _212  and  _213
REMARK   91  A    between atoms: _223  and  _225
REMARK   92  A    between atoms: _225  and  _226
REMARK   93  A    between atoms: _225  and  _228
REMARK   94  A    between atoms: _228  and  _229
REMARK   95  A    between atoms: _232  and  _234
REMARK   96  A    between atoms: _234  and  _235
REMARK   97  A    between atoms: _234  and  _237
REMARK   98  A    between atoms: _237  and  _238
REMARK   99  A    between atoms: _238  and  _239
REMARK  100  A    between atoms: _239  and  _240
REMARK  101  A    between atoms: _240  and  _241
REMARK  102  A    between atoms: _245  and  _247
REMARK  103  A    between atoms: _247  and  _248
REMARK  104  A    between atoms: _247  and  _250
REMARK  105  A    between atoms: _250  and  _251
REMARK  106  A    between atoms: _257  and  _259
REMARK  107  A    between atoms: _259  and  _260
REMARK  108  A    between atoms: _259  and  _262
REMARK  109  A    between atoms: _262  and  _263
REMARK  110  A    between atoms: _269  and  _271
REMARK  111  A    between atoms: _271  and  _272
REMARK  112  A    between atoms: _271  and  _274
REMARK  113  A    between atoms: _274  and  _275
REMARK  114  A    between atoms: _278  and  _280
REMARK  115  A    between atoms: _280  and  _281
REMARK  116  A    between atoms: _280  and  _283
REMARK  117  A    between atoms: _283  and  _284
REMARK  118  A    between atoms: _286  and  _288
REMARK  119  A    between atoms: _288  and  _289
REMARK  120  A    between atoms: _288  and  _291
REMARK  121  A    between atoms: _291  and  _292
REMARK  122  A    between atoms: _302  and  _304
REMARK  123  A    between atoms: _304  and  _305
REMARK  124  A    between atoms: _307  and  _309
REMARK  125  A    between atoms: _309  and  _310
REMARK  126  A    between atoms: _309  and  _312
REMARK  127  A    between atoms: _312  and  _313
REMARK  128  A    between atoms: _316  and  _318
REMARK  129  A    between atoms: _318  and  _319
REMARK  130  A    between atoms: _318  and  _321
REMARK  131  A    between atoms: _321  and  _322
REMARK  132  A    between atoms: _325  and  _327
REMARK  133  A    between atoms: _327  and  _328
REMARK  134  A    between atoms: _327  and  _330
REMARK  135  A    between atoms: _330  and  _331
REMARK  136  A    between atoms: _334  and  _336
REMARK  137  A    between atoms: _336  and  _337
REMARK  138  A    between atoms: _340  and  _342
REMARK  139  A    between atoms: _342  and  _343
REMARK  140  A    between atoms: _342  and  _345
REMARK  141  A    between atoms: _345  and  _346
REMARK  142  A    between atoms: _351  and  _352
REMARK  143  A    between atoms: _354  and  _356
REMARK  144  A    between atoms: _356  and  _357
REMARK  145  A    between atoms: _360  and  _362
REMARK  146  A    between atoms: _362  and  _363
REMARK  147  A    between atoms: _362  and  _365
REMARK  148  A    between atoms: _365  and  _366
REMARK  149  A    between atoms: _366  and  _367
REMARK  150  A    between atoms: _370  and  _372
REMARK  151  A    between atoms: _372  and  _373
REMARK  152  A    between atoms: _372  and  _375
REMARK  153  A    between atoms: _375  and  _376
REMARK  154  A    between atoms: _379  and  _381
REMARK  155  A    between atoms: _381  and  _382
REMARK  156  A    between atoms: _385  and  _387
REMARK  157  A    between atoms: _387  and  _388
REMARK  158  A    between atoms: _387  and  _390
REMARK  159  A    between atoms: _390  and  _391
REMARK  160  A    between atoms: _391  and  _392
REMARK  161  A    between atoms: _392  and  _393
REMARK  162  A    between atoms: _403  and  _404
REMARK  163  A    between atoms: _409  and  _411
REMARK  164  A    between atoms: _411  and  _412
REMARK  165  A    between atoms: _411  and  _414
REMARK  166  A    between atoms: _414  and  _415
REMARK  167  A    between atoms: _418  and  _420
REMARK  168  A    between atoms: _420  and  _421
REMARK  169  A    between atoms: _420  and  _423
REMARK  170  A    between atoms: _423  and  _424
REMARK  171  A    between atoms: _427  and  _429
REMARK  172  A    between atoms: _429  and  _430
REMARK  173  A    between atoms: _429  and  _432
REMARK  174  A    between atoms: _432  and  _433
REMARK  175  A    between atoms: _433  and  _434
REMARK  176  A    between atoms: _434  and  _435
REMARK  177  A    between atoms: _444  and  _446
REMARK  178  A    between atoms: _446  and  _447
REMARK  179  A    between atoms: _446  and  _449
REMARK  180  A    between atoms: _449  and  _450
REMARK  181  A    between atoms: _460  and  _462
REMARK  182  A    between atoms: _462  and  _463
REMARK  183  A    between atoms: _462  and  _465
REMARK  184  A    between atoms: _465  and  _466
REMARK  185  A    between atoms: _471  and  _472
REMARK  186  A    between atoms: _474  and  _476
REMARK  187  A    between atoms: _476  and  _477
REMARK  188  A    between atoms: _476  and  _479
REMARK  189  A    between atoms: _479  and  _480
REMARK  190  A    between atoms: _480  and  _481
REMARK  191  A    between atoms: _481  and  _482
REMARK  192  A    between atoms: _482  and  _483
REMARK  193  A    between atoms: _487  and  _489
REMARK  194  A    between atoms: _489  and  _490
REMARK  195  A    between atoms: _489  and  _492
REMARK  196  A    between atoms: _492  and  _493
REMARK  197  A    between atoms: _496  and  _498
REMARK  198  A    between atoms: _498  and  _499
REMARK  199  A    between atoms: _498  and  _501
REMARK  200  A    between atoms: _504  and  _506
REMARK  201  A    between atoms: _506  and  _507
REMARK  202  A    between atoms: _506  and  _509
REMARK  203  A    between atoms: _509  and  _510
REMARK  204  A    between atoms: _513  and  _515
REMARK  205  A    between atoms: _515  and  _516
REMARK  206  A    between atoms: _515  and  _518
REMARK  207  A    between atoms: _518  and  _519
REMARK  208  A    between atoms: _521  and  _523
REMARK  209  A    between atoms: _523  and  _524
REMARK  210  A    between atoms: _526  and  _528
REMARK  211  A    between atoms: _528  and  _529
REMARK  212  A    between atoms: _528  and  _531
REMARK  213  A    between atoms: _531  and  _532
REMARK  214  A    between atoms: _535  and  _537
REMARK  215  A    between atoms: _537  and  _538
REMARK  216  A    between atoms: _537  and  _540
REMARK  217  A    between atoms: _540  and  _541
REMARK  218  A    between atoms: _544  and  _546
REMARK  219  A    between atoms: _546  and  _547
REMARK  220  A    between atoms: _546  and  _549
REMARK  221  A    between atoms: _549  and  _550
REMARK  222  A    between atoms: _555  and  _557
REMARK  223  A    between atoms: _557  and  _558
REMARK  224  A    between atoms: _557  and  _560
REMARK  225  A    between atoms: _560  and  _561
REMARK  226  A    between atoms: _564  and  _566
REMARK  227  A    between atoms: _566  and  _567
REMARK  228  A    between atoms: _566  and  _569
REMARK  229  A    between atoms: _569  and  _570
REMARK  230  A    between atoms: _570  and  _571
REMARK  231  A    between atoms: _571  and  _572
REMARK  232  A    between atoms: _581  and  _583
REMARK  233  A    between atoms: _583  and  _584
REMARK  234  A    between atoms: _586  and  _588
REMARK  235  A    between atoms: _588  and  _589
REMARK  236  A    between atoms: _588  and  _591
REMARK  237  A    between atoms: _591  and  _592
REMARK  238  A    between atoms: _592  and  _593
REMARK  239  A    between atoms: _596  and  _598
REMARK  240  A    between atoms: _598  and  _599
REMARK  241  A    between atoms: _598  and  _601
REMARK  242  A    between atoms: _601  and  _602
REMARK  243  A    between atoms: _602  and  _603
REMARK  244  A    between atoms: _603  and  _604
REMARK  245  A    between atoms: _614  and  _615
REMARK  246  A    between atoms: _620  and  _622
REMARK  247  A    between atoms: _622  and  _623
REMARK  248  A    between atoms: _622  and  _625
REMARK  249  A    between atoms: _628  and  _630
REMARK  250  A    between atoms: _630  and  _631
REMARK  251  A    between atoms: _630  and  _633
REMARK  252  A    between atoms: _633  and  _634
REMARK  253  A    between atoms: _634  and  _635
REMARK  254  A    between atoms: _638  and  _640
REMARK  255  A    between atoms: _640  and  _641
REMARK  256  A    between atoms: _640  and  _643
REMARK  257  A    between atoms: _643  and  _644
REMARK  258  A    between atoms: _644  and  _645
REMARK  259  A    between atoms: _645  and  _646
REMARK  260  A    between atoms: _646  and  _647
REMARK  261  A    between atoms: _651  and  _653
REMARK  262  A    between atoms: _653  and  _654
REMARK  263  A    between atoms: _657  and  _659
REMARK  264  A    between atoms: _659  and  _660
REMARK  265  A    between atoms: _659  and  _662
REMARK  266  A    between atoms: _662  and  _663
REMARK  267  A    between atoms: _665  and  _667
REMARK  268  A    between atoms: _667  and  _668
REMARK  269  A    between atoms: _667  and  _670
REMARK  270  A    between atoms: _670  and  _671
REMARK  271  A    between atoms: _671  and  _672
REMARK  272  A    between atoms: _677  and  _679
REMARK  273  A    between atoms: _679  and  _680
REMARK  274  A    between atoms: _679  and  _682
REMARK  275  A    between atoms: _682  and  _683
REMARK  276  A    between atoms: _685  and  _687
REMARK  277  A    between atoms: _687  and  _688
REMARK  278  A    between atoms: _687  and  _690
REMARK  279  A    between atoms: _690  and  _691
REMARK  280  A    between atoms: _694  and  _696
REMARK  281  A    between atoms: _696  and  _697
REMARK  282  A    between atoms: _696  and  _699
REMARK  283  A    between atoms: _699  and  _700
REMARK  284  A    between atoms: _703  and  _705
REMARK  285  A    between atoms: _705  and  _706
REMARK  286  A    between atoms: _705  and  _708
REMARK  287  A    between atoms: _711  and  _713
REMARK  288  A    between atoms: _713  and  _714
REMARK  289  A    between atoms: _716  and  _718
REMARK  290  A    between atoms: _718  and  _719
REMARK  291  A    between atoms: _722  and  _724
REMARK  292  A    between atoms: _724  and  _725
REMARK  293  A    between atoms: _724  and  _727
REMARK                            x       y       z     vdW  Elec       q    Type
REMARK                         _______ _______ _______ _____ _____    ______ ____
ROOT
ATOM      1  O   HOH     1       5.724  27.108  20.893  0.00  0.00    +0.000 OA
ENDROOT
TORSDOF 0
