REMARK  Name = ../refined-set-2016/1k6c/1k6c_pocket.pdb
REMARK  240 active torsions:
REMARK  status: ('A' for Active; 'I' for Inactive)
REMARK    1  A    between atoms: _1  and  _3
REMARK    2  A    between atoms: _3  and  _4
REMARK    3  A    between atoms: _3  and  _6
REMARK    4  A    between atoms: _6  and  _7
REMARK    5  A    between atoms: _7  and  _8
REMARK    6  A    between atoms: _8  and  _9
REMARK    7  A    between atoms: _18  and  _20
REMARK    8  A    between atoms: _20  and  _21
REMARK    9  A    between atoms: _20  and  _23
REMARK   10  A    between atoms: _23  and  _24
REMARK   11  A    between atoms: _27  and  _29
REMARK   12  A    between atoms: _29  and  _30
REMARK   13  A    between atoms: _29  and  _32
REMARK   14  A    between atoms: _32  and  _33
REMARK   15  A    between atoms: _36  and  _38
REMARK   16  A    between atoms: _38  and  _39
REMARK   17  A    between atoms: _38  and  _41
REMARK   18  A    between atoms: _41  and  _42
REMARK   19  A    between atoms: _45  and  _47
REMARK   20  A    between atoms: _47  and  _48
REMARK   21  A    between atoms: _47  and  _50
REMARK   22  A    between atoms: _50  and  _51
REMARK   23  A    between atoms: _54  and  _56
REMARK   24  A    between atoms: _56  and  _57
REMARK   25  A    between atoms: _56  and  _59
REMARK   26  A    between atoms: _59  and  _60
REMARK   27  A    between atoms: _63  and  _65
REMARK   28  A    between atoms: _65  and  _66
REMARK   29  A    between atoms: _68  and  _70
REMARK   30  A    between atoms: _70  and  _71
REMARK   31  A    between atoms: _74  and  _76
REMARK   32  A    between atoms: _76  and  _77
REMARK   33  A    between atoms: _76  and  _79
REMARK   34  A    between atoms: _79  and  _80
REMARK   35  A    between atoms: _83  and  _85
REMARK   36  A    between atoms: _85  and  _86
REMARK   37  A    between atoms: _85  and  _88
REMARK   38  A    between atoms: _88  and  _89
REMARK   39  A    between atoms: _92  and  _94
REMARK   40  A    between atoms: _94  and  _95
REMARK   41  A    between atoms: _94  and  _97
REMARK   42  A    between atoms: _97  and  _98
REMARK   43  A    between atoms: _101  and  _103
REMARK   44  A    between atoms: _103  and  _104
REMARK   45  A    between atoms: _103  and  _106
REMARK   46  A    between atoms: _109  and  _111
REMARK   47  A    between atoms: _111  and  _112
REMARK   48  A    between atoms: _111  and  _114
REMARK   49  A    between atoms: _114  and  _115
REMARK   50  A    between atoms: _118  and  _120
REMARK   51  A    between atoms: _120  and  _121
REMARK   52  A    between atoms: _120  and  _123
REMARK   53  A    between atoms: _123  and  _124
REMARK   54  A    between atoms: _124  and  _125
REMARK   55  A    between atoms: _125  and  _126
REMARK   56  A    between atoms: _126  and  _127
REMARK   57  A    between atoms: _131  and  _133
REMARK   58  A    between atoms: _133  and  _134
REMARK   59  A    between atoms: _133  and  _136
REMARK   60  A    between atoms: _136  and  _137
REMARK   61  A    between atoms: _137  and  _138
REMARK   62  A    between atoms: _140  and  _142
REMARK   63  A    between atoms: _142  and  _143
REMARK   64  A    between atoms: _142  and  _145
REMARK   65  A    between atoms: _145  and  _146
REMARK   66  A    between atoms: _149  and  _151
REMARK   67  A    between atoms: _151  and  _152
REMARK   68  A    between atoms: _154  and  _156
REMARK   69  A    between atoms: _156  and  _157
REMARK   70  A    between atoms: _159  and  _161
REMARK   71  A    between atoms: _161  and  _162
REMARK   72  A    between atoms: _161  and  _164
REMARK   73  A    between atoms: _164  and  _165
REMARK   74  A    between atoms: _168  and  _170
REMARK   75  A    between atoms: _170  and  _171
REMARK   76  A    between atoms: _173  and  _175
REMARK   77  A    between atoms: _175  and  _176
REMARK   78  A    between atoms: _178  and  _180
REMARK   79  A    between atoms: _180  and  _181
REMARK   80  A    between atoms: _180  and  _183
REMARK   81  A    between atoms: _183  and  _184
REMARK   82  A    between atoms: _190  and  _192
REMARK   83  A    between atoms: _192  and  _193
REMARK   84  A    between atoms: _192  and  _195
REMARK   85  A    between atoms: _195  and  _196
REMARK   86  A    between atoms: _199  and  _201
REMARK   87  A    between atoms: _201  and  _202
REMARK   88  A    between atoms: _201  and  _204
REMARK   89  A    between atoms: _207  and  _209
REMARK   90  A    between atoms: _209  and  _210
REMARK   91  A    between atoms: _209  and  _212
REMARK   92  A    between atoms: _212  and  _213
REMARK   93  A    between atoms: _216  and  _218
REMARK   94  A    between atoms: _218  and  _219
REMARK   95  A    between atoms: _218  and  _221
REMARK   96  A    between atoms: _221  and  _222
REMARK   97  A    between atoms: _226  and  _227
REMARK   98  A    between atoms: _232  and  _234
REMARK   99  A    between atoms: _234  and  _235
REMARK  100  A    between atoms: _234  and  _237
REMARK  101  A    between atoms: _237  and  _238
REMARK  102  A    between atoms: _241  and  _243
REMARK  103  A    between atoms: _243  and  _244
REMARK  104  A    between atoms: _243  and  _246
REMARK  105  A    between atoms: _246  and  _247
REMARK  106  A    between atoms: _252  and  _254
REMARK  107  A    between atoms: _254  and  _255
REMARK  108  A    between atoms: _254  and  _257
REMARK  109  A    between atoms: _260  and  _262
REMARK  110  A    between atoms: _262  and  _263
REMARK  111  A    between atoms: _262  and  _265
REMARK  112  A    between atoms: _265  and  _266
REMARK  113  A    between atoms: _269  and  _271
REMARK  114  A    between atoms: _271  and  _272
REMARK  115  A    between atoms: _274  and  _276
REMARK  116  A    between atoms: _276  and  _277
REMARK  117  A    between atoms: _276  and  _279
REMARK  118  A    between atoms: _279  and  _280
REMARK  119  A    between atoms: _280  and  _281
REMARK  120  A    between atoms: _281  and  _282
REMARK  121  A    between atoms: _291  and  _293
REMARK  122  A    between atoms: _293  and  _294
REMARK  123  A    between atoms: _293  and  _296
REMARK  124  A    between atoms: _296  and  _297
REMARK  125  A    between atoms: _297  and  _298
REMARK  126  A    between atoms: _298  and  _299
REMARK  127  A    between atoms: _308  and  _310
REMARK  128  A    between atoms: _310  and  _311
REMARK  129  A    between atoms: _310  and  _313
REMARK  130  A    between atoms: _313  and  _314
REMARK  131  A    between atoms: _317  and  _319
REMARK  132  A    between atoms: _319  and  _320
REMARK  133  A    between atoms: _319  and  _322
REMARK  134  A    between atoms: _322  and  _323
REMARK  135  A    between atoms: _326  and  _328
REMARK  136  A    between atoms: _328  and  _329
REMARK  137  A    between atoms: _328  and  _331
REMARK  138  A    between atoms: _331  and  _332
REMARK  139  A    between atoms: _335  and  _337
REMARK  140  A    between atoms: _337  and  _338
REMARK  141  A    between atoms: _337  and  _340
REMARK  142  A    between atoms: _340  and  _341
REMARK  143  A    between atoms: _344  and  _346
REMARK  144  A    between atoms: _346  and  _347
REMARK  145  A    between atoms: _349  and  _351
REMARK  146  A    between atoms: _351  and  _352
REMARK  147  A    between atoms: _355  and  _357
REMARK  148  A    between atoms: _357  and  _358
REMARK  149  A    between atoms: _357  and  _360
REMARK  150  A    between atoms: _360  and  _361
REMARK  151  A    between atoms: _364  and  _366
REMARK  152  A    between atoms: _366  and  _367
REMARK  153  A    between atoms: _366  and  _369
REMARK  154  A    between atoms: _369  and  _370
REMARK  155  A    between atoms: _373  and  _375
REMARK  156  A    between atoms: _375  and  _376
REMARK  157  A    between atoms: _375  and  _378
REMARK  158  A    between atoms: _378  and  _379
REMARK  159  A    between atoms: _382  and  _384
REMARK  160  A    between atoms: _384  and  _385
REMARK  161  A    between atoms: _384  and  _387
REMARK  162  A    between atoms: _390  and  _392
REMARK  163  A    between atoms: _392  and  _393
REMARK  164  A    between atoms: _392  and  _395
REMARK  165  A    between atoms: _395  and  _396
REMARK  166  A    between atoms: _399  and  _401
REMARK  167  A    between atoms: _401  and  _402
REMARK  168  A    between atoms: _401  and  _404
REMARK  169  A    between atoms: _404  and  _405
REMARK  170  A    between atoms: _405  and  _406
REMARK  171  A    between atoms: _406  and  _407
REMARK  172  A    between atoms: _407  and  _408
REMARK  173  A    between atoms: _412  and  _414
REMARK  174  A    between atoms: _414  and  _415
REMARK  175  A    between atoms: _414  and  _417
REMARK  176  A    between atoms: _417  and  _418
REMARK  177  A    between atoms: _418  and  _419
REMARK  178  A    between atoms: _421  and  _423
REMARK  179  A    between atoms: _423  and  _424
REMARK  180  A    between atoms: _423  and  _426
REMARK  181  A    between atoms: _426  and  _427
REMARK  182  A    between atoms: _430  and  _432
REMARK  183  A    between atoms: _432  and  _433
REMARK  184  A    between atoms: _435  and  _437
REMARK  185  A    between atoms: _437  and  _438
REMARK  186  A    between atoms: _440  and  _442
REMARK  187  A    between atoms: _442  and  _443
REMARK  188  A    between atoms: _442  and  _445
REMARK  189  A    between atoms: _445  and  _446
REMARK  190  A    between atoms: _449  and  _451
REMARK  191  A    between atoms: _451  and  _452
REMARK  192  A    between atoms: _454  and  _456
REMARK  193  A    between atoms: _456  and  _457
REMARK  194  A    between atoms: _459  and  _461
REMARK  195  A    between atoms: _461  and  _462
REMARK  196  A    between atoms: _461  and  _464
REMARK  197  A    between atoms: _464  and  _465
REMARK  198  A    between atoms: _471  and  _473
REMARK  199  A    between atoms: _473  and  _474
REMARK  200  A    between atoms: _473  and  _476
REMARK  201  A    between atoms: _476  and  _477
REMARK  202  A    between atoms: _480  and  _482
REMARK  203  A    between atoms: _482  and  _483
REMARK  204  A    between atoms: _482  and  _485
REMARK  205  A    between atoms: _488  and  _490
REMARK  206  A    between atoms: _490  and  _491
REMARK  207  A    between atoms: _490  and  _493
REMARK  208  A    between atoms: _493  and  _494
REMARK  209  A    between atoms: _497  and  _499
REMARK  210  A    between atoms: _499  and  _500
REMARK  211  A    between atoms: _499  and  _502
REMARK  212  A    between atoms: _502  and  _503
REMARK  213  A    between atoms: _507  and  _508
REMARK  214  A    between atoms: _513  and  _515
REMARK  215  A    between atoms: _515  and  _516
REMARK  216  A    between atoms: _515  and  _518
REMARK  217  A    between atoms: _518  and  _519
REMARK  218  A    between atoms: _522  and  _524
REMARK  219  A    between atoms: _524  and  _525
REMARK  220  A    between atoms: _524  and  _527
REMARK  221  A    between atoms: _527  and  _528
REMARK  222  A    between atoms: _533  and  _535
REMARK  223  A    between atoms: _535  and  _536
REMARK  224  A    between atoms: _535  and  _538
REMARK  225  A    between atoms: _541  and  _543
REMARK  226  A    between atoms: _543  and  _544
REMARK  227  A    between atoms: _543  and  _546
REMARK  228  A    between atoms: _546  and  _547
REMARK  229  A    between atoms: _550  and  _552
REMARK  230  A    between atoms: _552  and  _553
REMARK  231  A    between atoms: _555  and  _557
REMARK  232  A    between atoms: _557  and  _558
REMARK  233  A    between atoms: _557  and  _560
REMARK  234  A    between atoms: _560  and  _561
REMARK  235  A    between atoms: _561  and  _562
REMARK  236  A    between atoms: _562  and  _563
REMARK  237  A    between atoms: _572  and  _574
REMARK  238  A    between atoms: _574  and  _575
REMARK  239  A    between atoms: _574  and  _577
REMARK  240  A    between atoms: _577  and  _578
REMARK                            x       y       z     vdW  Elec       q    Type
REMARK                         _______ _______ _______ _____ _____    ______ ____
ROOT
ATOM      1  NE  ARG A   1       6.372   8.552  11.029  0.00  0.00    -0.265 N 
ATOM      2  HE  ARG A   1       5.351   8.697  11.168  0.00  0.00    +0.259 HD
ATOM      3  CZ  ARG A   1       6.755   7.751  10.039  0.00  0.00    +0.342 C 
ATOM      4  NH2 ARG A   1       8.048   7.532   9.820  0.00  0.00    -0.292 N 
ATOM      5 HH21 ARG A   1       8.762   7.987  10.423  0.00  0.00    +0.255 HD
ATOM      6 HH22 ARG A   1       8.345   6.905   9.045  0.00  0.00    +0.255 HD
ATOM      7  NH1 ARG A   1       5.843   7.166   9.270  0.00  0.00    -0.292 N 
ATOM      8 HH11 ARG A   1       4.831   7.335   9.443  0.00  0.00    +0.255 HD
ATOM      9 HH12 ARG A   1       6.141   6.539   8.495  0.00  0.00    +0.255 HD
ENDROOT
BRANCH   1  10
ATOM     10  CD  ARG A   1       7.287   9.243  11.936  0.00  0.00    +0.174 C 
BRANCH  10  11
ATOM     11  CG  ARG A   1       6.536   9.958  13.044  0.00  0.00    +0.045 C 
BRANCH  11  12
ATOM     12  CB  ARG A   1       7.480  10.492  14.106  0.00  0.00    +0.029 C 
BRANCH  12  13
ATOM     13  CA  ARG A   1       6.764  11.100  15.311  0.00  0.00    +0.133 C 
BRANCH  13  14
ATOM     14  N   ARG A   1       6.090  12.333  14.928  0.00  0.00    -0.239 NA
ATOM     15  H   ARG A   1       6.083  12.629  13.931  0.00  0.00    +0.142 HD
ENDBRANCH  13  14
BRANCH  13  16
ATOM     16  C   ARG A   1       7.774  11.461  16.398  0.00  0.00    +0.224 C 
ATOM     17  O   ARG A   1       8.484  12.458  16.273  0.00  0.00    -0.287 OA
ENDBRANCH  13  16
ENDBRANCH  12  13
ENDBRANCH  11  12
ENDBRANCH  10  11
ENDBRANCH   1  10
TORSDOF 6
REMARK  Name = ../refined-set-2016/1k6c/1k6c_pocket.pdb
REMARK  240 active torsions:
REMARK  status: ('A' for Active; 'I' for Inactive)
REMARK    1  A    between atoms: _1  and  _3
REMARK    2  A    between atoms: _3  and  _4
REMARK    3  A    between atoms: _3  and  _6
REMARK    4  A    between atoms: _6  and  _7
REMARK    5  A    between atoms: _7  and  _8
REMARK    6  A    between atoms: _8  and  _9
REMARK    7  A    between atoms: _18  and  _20
REMARK    8  A    between atoms: _20  and  _21
REMARK    9  A    between atoms: _20  and  _23
REMARK   10  A    between atoms: _23  and  _24
REMARK   11  A    between atoms: _27  and  _29
REMARK   12  A    between atoms: _29  and  _30
REMARK   13  A    between atoms: _29  and  _32
REMARK   14  A    between atoms: _32  and  _33
REMARK   15  A    between atoms: _36  and  _38
REMARK   16  A    between atoms: _38  and  _39
REMARK   17  A    between atoms: _38  and  _41
REMARK   18  A    between atoms: _41  and  _42
REMARK   19  A    between atoms: _45  and  _47
REMARK   20  A    between atoms: _47  and  _48
REMARK   21  A    between atoms: _47  and  _50
REMARK   22  A    between atoms: _50  and  _51
REMARK   23  A    between atoms: _54  and  _56
REMARK   24  A    between atoms: _56  and  _57
REMARK   25  A    between atoms: _56  and  _59
REMARK   26  A    between atoms: _59  and  _60
REMARK   27  A    between atoms: _63  and  _65
REMARK   28  A    between atoms: _65  and  _66
REMARK   29  A    between atoms: _68  and  _70
REMARK   30  A    between atoms: _70  and  _71
REMARK   31  A    between atoms: _74  and  _76
REMARK   32  A    between atoms: _76  and  _77
REMARK   33  A    between atoms: _76  and  _79
REMARK   34  A    between atoms: _79  and  _80
REMARK   35  A    between atoms: _83  and  _85
REMARK   36  A    between atoms: _85  and  _86
REMARK   37  A    between atoms: _85  and  _88
REMARK   38  A    between atoms: _88  and  _89
REMARK   39  A    between atoms: _92  and  _94
REMARK   40  A    between atoms: _94  and  _95
REMARK   41  A    between atoms: _94  and  _97
REMARK   42  A    between atoms: _97  and  _98
REMARK   43  A    between atoms: _101  and  _103
REMARK   44  A    between atoms: _103  and  _104
REMARK   45  A    between atoms: _103  and  _106
REMARK   46  A    between atoms: _109  and  _111
REMARK   47  A    between atoms: _111  and  _112
REMARK   48  A    between atoms: _111  and  _114
REMARK   49  A    between atoms: _114  and  _115
REMARK   50  A    between atoms: _118  and  _120
REMARK   51  A    between atoms: _120  and  _121
REMARK   52  A    between atoms: _120  and  _123
REMARK   53  A    between atoms: _123  and  _124
REMARK   54  A    between atoms: _124  and  _125
REMARK   55  A    between atoms: _125  and  _126
REMARK   56  A    between atoms: _126  and  _127
REMARK   57  A    between atoms: _131  and  _133
REMARK   58  A    between atoms: _133  and  _134
REMARK   59  A    between atoms: _133  and  _136
REMARK   60  A    between atoms: _136  and  _137
REMARK   61  A    between atoms: _137  and  _138
REMARK   62  A    between atoms: _140  and  _142
REMARK   63  A    between atoms: _142  and  _143
REMARK   64  A    between atoms: _142  and  _145
REMARK   65  A    between atoms: _145  and  _146
REMARK   66  A    between atoms: _149  and  _151
REMARK   67  A    between atoms: _151  and  _152
REMARK   68  A    between atoms: _154  and  _156
REMARK   69  A    between atoms: _156  and  _157
REMARK   70  A    between atoms: _159  and  _161
REMARK   71  A    between atoms: _161  and  _162
REMARK   72  A    between atoms: _161  and  _164
REMARK   73  A    between atoms: _164  and  _165
REMARK   74  A    between atoms: _168  and  _170
REMARK   75  A    between atoms: _170  and  _171
REMARK   76  A    between atoms: _173  and  _175
REMARK   77  A    between atoms: _175  and  _176
REMARK   78  A    between atoms: _178  and  _180
REMARK   79  A    between atoms: _180  and  _181
REMARK   80  A    between atoms: _180  and  _183
REMARK   81  A    between atoms: _183  and  _184
REMARK   82  A    between atoms: _190  and  _192
REMARK   83  A    between atoms: _192  and  _193
REMARK   84  A    between atoms: _192  and  _195
REMARK   85  A    between atoms: _195  and  _196
REMARK   86  A    between atoms: _199  and  _201
REMARK   87  A    between atoms: _201  and  _202
REMARK   88  A    between atoms: _201  and  _204
REMARK   89  A    between atoms: _207  and  _209
REMARK   90  A    between atoms: _209  and  _210
REMARK   91  A    between atoms: _209  and  _212
REMARK   92  A    between atoms: _212  and  _213
REMARK   93  A    between atoms: _216  and  _218
REMARK   94  A    between atoms: _218  and  _219
REMARK   95  A    between atoms: _218  and  _221
REMARK   96  A    between atoms: _221  and  _222
REMARK   97  A    between atoms: _226  and  _227
REMARK   98  A    between atoms: _232  and  _234
REMARK   99  A    between atoms: _234  and  _235
REMARK  100  A    between atoms: _234  and  _237
REMARK  101  A    between atoms: _237  and  _238
REMARK  102  A    between atoms: _241  and  _243
REMARK  103  A    between atoms: _243  and  _244
REMARK  104  A    between atoms: _243  and  _246
REMARK  105  A    between atoms: _246  and  _247
REMARK  106  A    between atoms: _252  and  _254
REMARK  107  A    between atoms: _254  and  _255
REMARK  108  A    between atoms: _254  and  _257
REMARK  109  A    between atoms: _260  and  _262
REMARK  110  A    between atoms: _262  and  _263
REMARK  111  A    between atoms: _262  and  _265
REMARK  112  A    between atoms: _265  and  _266
REMARK  113  A    between atoms: _269  and  _271
REMARK  114  A    between atoms: _271  and  _272
REMARK  115  A    between atoms: _274  and  _276
REMARK  116  A    between atoms: _276  and  _277
REMARK  117  A    between atoms: _276  and  _279
REMARK  118  A    between atoms: _279  and  _280
REMARK  119  A    between atoms: _280  and  _281
REMARK  120  A    between atoms: _281  and  _282
REMARK  121  A    between atoms: _291  and  _293
REMARK  122  A    between atoms: _293  and  _294
REMARK  123  A    between atoms: _293  and  _296
REMARK  124  A    between atoms: _296  and  _297
REMARK  125  A    between atoms: _297  and  _298
REMARK  126  A    between atoms: _298  and  _299
REMARK  127  A    between atoms: _308  and  _310
REMARK  128  A    between atoms: _310  and  _311
REMARK  129  A    between atoms: _310  and  _313
REMARK  130  A    between atoms: _313  and  _314
REMARK  131  A    between atoms: _317  and  _319
REMARK  132  A    between atoms: _319  and  _320
REMARK  133  A    between atoms: _319  and  _322
REMARK  134  A    between atoms: _322  and  _323
REMARK  135  A    between atoms: _326  and  _328
REMARK  136  A    between atoms: _328  and  _329
REMARK  137  A    between atoms: _328  and  _331
REMARK  138  A    between atoms: _331  and  _332
REMARK  139  A    between atoms: _335  and  _337
REMARK  140  A    between atoms: _337  and  _338
REMARK  141  A    between atoms: _337  and  _340
REMARK  142  A    between atoms: _340  and  _341
REMARK  143  A    between atoms: _344  and  _346
REMARK  144  A    between atoms: _346  and  _347
REMARK  145  A    between atoms: _349  and  _351
REMARK  146  A    between atoms: _351  and  _352
REMARK  147  A    between atoms: _355  and  _357
REMARK  148  A    between atoms: _357  and  _358
REMARK  149  A    between atoms: _357  and  _360
REMARK  150  A    between atoms: _360  and  _361
REMARK  151  A    between atoms: _364  and  _366
REMARK  152  A    between atoms: _366  and  _367
REMARK  153  A    between atoms: _366  and  _369
REMARK  154  A    between atoms: _369  and  _370
REMARK  155  A    between atoms: _373  and  _375
REMARK  156  A    between atoms: _375  and  _376
REMARK  157  A    between atoms: _375  and  _378
REMARK  158  A    between atoms: _378  and  _379
REMARK  159  A    between atoms: _382  and  _384
REMARK  160  A    between atoms: _384  and  _385
REMARK  161  A    between atoms: _384  and  _387
REMARK  162  A    between atoms: _390  and  _392
REMARK  163  A    between atoms: _392  and  _393
REMARK  164  A    between atoms: _392  and  _395
REMARK  165  A    between atoms: _395  and  _396
REMARK  166  A    between atoms: _399  and  _401
REMARK  167  A    between atoms: _401  and  _402
REMARK  168  A    between atoms: _401  and  _404
REMARK  169  A    between atoms: _404  and  _405
REMARK  170  A    between atoms: _405  and  _406
REMARK  171  A    between atoms: _406  and  _407
REMARK  172  A    between atoms: _407  and  _408
REMARK  173  A    between atoms: _412  and  _414
REMARK  174  A    between atoms: _414  and  _415
REMARK  175  A    between atoms: _414  and  _417
REMARK  176  A    between atoms: _417  and  _418
REMARK  177  A    between atoms: _418  and  _419
REMARK  178  A    between atoms: _421  and  _423
REMARK  179  A    between atoms: _423  and  _424
REMARK  180  A    between atoms: _423  and  _426
REMARK  181  A    between atoms: _426  and  _427
REMARK  182  A    between atoms: _430  and  _432
REMARK  183  A    between atoms: _432  and  _433
REMARK  184  A    between atoms: _435  and  _437
REMARK  185  A    between atoms: _437  and  _438
REMARK  186  A    between atoms: _440  and  _442
REMARK  187  A    between atoms: _442  and  _443
REMARK  188  A    between atoms: _442  and  _445
REMARK  189  A    between atoms: _445  and  _446
REMARK  190  A    between atoms: _449  and  _451
REMARK  191  A    between atoms: _451  and  _452
REMARK  192  A    between atoms: _454  and  _456
REMARK  193  A    between atoms: _456  and  _457
REMARK  194  A    between atoms: _459  and  _461
REMARK  195  A    between atoms: _461  and  _462
REMARK  196  A    between atoms: _461  and  _464
REMARK  197  A    between atoms: _464  and  _465
REMARK  198  A    between atoms: _471  and  _473
REMARK  199  A    between atoms: _473  and  _474
REMARK  200  A    between atoms: _473  and  _476
REMARK  201  A    between atoms: _476  and  _477
REMARK  202  A    between atoms: _480  and  _482
REMARK  203  A    between atoms: _482  and  _483
REMARK  204  A    between atoms: _482  and  _485
REMARK  205  A    between atoms: _488  and  _490
REMARK  206  A    between atoms: _490  and  _491
REMARK  207  A    between atoms: _490  and  _493
REMARK  208  A    between atoms: _493  and  _494
REMARK  209  A    between atoms: _497  and  _499
REMARK  210  A    between atoms: _499  and  _500
REMARK  211  A    between atoms: _499  and  _502
REMARK  212  A    between atoms: _502  and  _503
REMARK  213  A    between atoms: _507  and  _508
REMARK  214  A    between atoms: _513  and  _515
REMARK  215  A    between atoms: _515  and  _516
REMARK  216  A    between atoms: _515  and  _518
REMARK  217  A    between atoms: _518  and  _519
REMARK  218  A    between atoms: _522  and  _524
REMARK  219  A    between atoms: _524  and  _525
REMARK  220  A    between atoms: _524  and  _527
REMARK  221  A    between atoms: _527  and  _528
REMARK  222  A    between atoms: _533  and  _535
REMARK  223  A    between atoms: _535  and  _536
REMARK  224  A    between atoms: _535  and  _538
REMARK  225  A    between atoms: _541  and  _543
REMARK  226  A    between atoms: _543  and  _544
REMARK  227  A    between atoms: _543  and  _546
REMARK  228  A    between atoms: _546  and  _547
REMARK  229  A    between atoms: _550  and  _552
REMARK  230  A    between atoms: _552  and  _553
REMARK  231  A    between atoms: _555  and  _557
REMARK  232  A    between atoms: _557  and  _558
REMARK  233  A    between atoms: _557  and  _560
REMARK  234  A    between atoms: _560  and  _561
REMARK  235  A    between atoms: _561  and  _562
REMARK  236  A    between atoms: _562  and  _563
REMARK  237  A    between atoms: _572  and  _574
REMARK  238  A    between atoms: _574  and  _575
REMARK  239  A    between atoms: _574  and  _577
REMARK  240  A    between atoms: _577  and  _578
REMARK                            x       y       z     vdW  Elec       q    Type
REMARK                         _______ _______ _______ _____ _____    ______ ____
ROOT
ATOM      1  CA  LEU A   1      12.277  11.051  17.130  0.00  0.00    +0.133 C 
ENDROOT
BRANCH   1   2
ATOM      2  N   LEU A   1      10.903  11.333  17.511  0.00  0.00    -0.239 NA
ATOM      3  H   LEU A   1      10.453  12.209  17.176  0.00  0.00    +0.142 HD
ENDBRANCH   1   2
BRANCH   1   4
ATOM      4  C   LEU A   1      13.269  11.615  18.136  0.00  0.00    +0.224 C 
ATOM      5  O   LEU A   1      13.078  12.706  18.663  0.00  0.00    -0.287 OA
ENDBRANCH   1   4
BRANCH   1   6
ATOM      6  CB  LEU A   1      12.558  11.637  15.748  0.00  0.00    +0.025 C 
BRANCH   6   7
ATOM      7  CG  LEU A   1      11.686  11.067  14.633  0.00  0.00    +0.002 C 
ATOM      8  CD2 LEU A   1      11.894   9.559  14.555  0.00  0.00    +0.000 C 
ATOM      9  CD1 LEU A   1      12.041  11.725  13.309  0.00  0.00    +0.000 C 
ENDBRANCH   6   7
ENDBRANCH   1   6
TORSDOF 4
REMARK  Name = ../refined-set-2016/1k6c/1k6c_pocket.pdb
REMARK  240 active torsions:
REMARK  status: ('A' for Active; 'I' for Inactive)
REMARK    1  A    between atoms: _1  and  _3
REMARK    2  A    between atoms: _3  and  _4
REMARK    3  A    between atoms: _3  and  _6
REMARK    4  A    between atoms: _6  and  _7
REMARK    5  A    between atoms: _7  and  _8
REMARK    6  A    between atoms: _8  and  _9
REMARK    7  A    between atoms: _18  and  _20
REMARK    8  A    between atoms: _20  and  _21
REMARK    9  A    between atoms: _20  and  _23
REMARK   10  A    between atoms: _23  and  _24
REMARK   11  A    between atoms: _27  and  _29
REMARK   12  A    between atoms: _29  and  _30
REMARK   13  A    between atoms: _29  and  _32
REMARK   14  A    between atoms: _32  and  _33
REMARK   15  A    between atoms: _36  and  _38
REMARK   16  A    between atoms: _38  and  _39
REMARK   17  A    between atoms: _38  and  _41
REMARK   18  A    between atoms: _41  and  _42
REMARK   19  A    between atoms: _45  and  _47
REMARK   20  A    between atoms: _47  and  _48
REMARK   21  A    between atoms: _47  and  _50
REMARK   22  A    between atoms: _50  and  _51
REMARK   23  A    between atoms: _54  and  _56
REMARK   24  A    between atoms: _56  and  _57
REMARK   25  A    between atoms: _56  and  _59
REMARK   26  A    between atoms: _59  and  _60
REMARK   27  A    between atoms: _63  and  _65
REMARK   28  A    between atoms: _65  and  _66
REMARK   29  A    between atoms: _68  and  _70
REMARK   30  A    between atoms: _70  and  _71
REMARK   31  A    between atoms: _74  and  _76
REMARK   32  A    between atoms: _76  and  _77
REMARK   33  A    between atoms: _76  and  _79
REMARK   34  A    between atoms: _79  and  _80
REMARK   35  A    between atoms: _83  and  _85
REMARK   36  A    between atoms: _85  and  _86
REMARK   37  A    between atoms: _85  and  _88
REMARK   38  A    between atoms: _88  and  _89
REMARK   39  A    between atoms: _92  and  _94
REMARK   40  A    between atoms: _94  and  _95
REMARK   41  A    between atoms: _94  and  _97
REMARK   42  A    between atoms: _97  and  _98
REMARK   43  A    between atoms: _101  and  _103
REMARK   44  A    between atoms: _103  and  _104
REMARK   45  A    between atoms: _103  and  _106
REMARK   46  A    between atoms: _109  and  _111
REMARK   47  A    between atoms: _111  and  _112
REMARK   48  A    between atoms: _111  and  _114
REMARK   49  A    between atoms: _114  and  _115
REMARK   50  A    between atoms: _118  and  _120
REMARK   51  A    between atoms: _120  and  _121
REMARK   52  A    between atoms: _120  and  _123
REMARK   53  A    between atoms: _123  and  _124
REMARK   54  A    between atoms: _124  and  _125
REMARK   55  A    between atoms: _125  and  _126
REMARK   56  A    between atoms: _126  and  _127
REMARK   57  A    between atoms: _131  and  _133
REMARK   58  A    between atoms: _133  and  _134
REMARK   59  A    between atoms: _133  and  _136
REMARK   60  A    between atoms: _136  and  _137
REMARK   61  A    between atoms: _137  and  _138
REMARK   62  A    between atoms: _140  and  _142
REMARK   63  A    between atoms: _142  and  _143
REMARK   64  A    between atoms: _142  and  _145
REMARK   65  A    between atoms: _145  and  _146
REMARK   66  A    between atoms: _149  and  _151
REMARK   67  A    between atoms: _151  and  _152
REMARK   68  A    between atoms: _154  and  _156
REMARK   69  A    between atoms: _156  and  _157
REMARK   70  A    between atoms: _159  and  _161
REMARK   71  A    between atoms: _161  and  _162
REMARK   72  A    between atoms: _161  and  _164
REMARK   73  A    between atoms: _164  and  _165
REMARK   74  A    between atoms: _168  and  _170
REMARK   75  A    between atoms: _170  and  _171
REMARK   76  A    between atoms: _173  and  _175
REMARK   77  A    between atoms: _175  and  _176
REMARK   78  A    between atoms: _178  and  _180
REMARK   79  A    between atoms: _180  and  _181
REMARK   80  A    between atoms: _180  and  _183
REMARK   81  A    between atoms: _183  and  _184
REMARK   82  A    between atoms: _190  and  _192
REMARK   83  A    between atoms: _192  and  _193
REMARK   84  A    between atoms: _192  and  _195
REMARK   85  A    between atoms: _195  and  _196
REMARK   86  A    between atoms: _199  and  _201
REMARK   87  A    between atoms: _201  and  _202
REMARK   88  A    between atoms: _201  and  _204
REMARK   89  A    between atoms: _207  and  _209
REMARK   90  A    between atoms: _209  and  _210
REMARK   91  A    between atoms: _209  and  _212
REMARK   92  A    between atoms: _212  and  _213
REMARK   93  A    between atoms: _216  and  _218
REMARK   94  A    between atoms: _218  and  _219
REMARK   95  A    between atoms: _218  and  _221
REMARK   96  A    between atoms: _221  and  _222
REMARK   97  A    between atoms: _226  and  _227
REMARK   98  A    between atoms: _232  and  _234
REMARK   99  A    between atoms: _234  and  _235
REMARK  100  A    between atoms: _234  and  _237
REMARK  101  A    between atoms: _237  and  _238
REMARK  102  A    between atoms: _241  and  _243
REMARK  103  A    between atoms: _243  and  _244
REMARK  104  A    between atoms: _243  and  _246
REMARK  105  A    between atoms: _246  and  _247
REMARK  106  A    between atoms: _252  and  _254
REMARK  107  A    between atoms: _254  and  _255
REMARK  108  A    between atoms: _254  and  _257
REMARK  109  A    between atoms: _260  and  _262
REMARK  110  A    between atoms: _262  and  _263
REMARK  111  A    between atoms: _262  and  _265
REMARK  112  A    between atoms: _265  and  _266
REMARK  113  A    between atoms: _269  and  _271
REMARK  114  A    between atoms: _271  and  _272
REMARK  115  A    between atoms: _274  and  _276
REMARK  116  A    between atoms: _276  and  _277
REMARK  117  A    between atoms: _276  and  _279
REMARK  118  A    between atoms: _279  and  _280
REMARK  119  A    between atoms: _280  and  _281
REMARK  120  A    between atoms: _281  and  _282
REMARK  121  A    between atoms: _291  and  _293
REMARK  122  A    between atoms: _293  and  _294
REMARK  123  A    between atoms: _293  and  _296
REMARK  124  A    between atoms: _296  and  _297
REMARK  125  A    between atoms: _297  and  _298
REMARK  126  A    between atoms: _298  and  _299
REMARK  127  A    between atoms: _308  and  _310
REMARK  128  A    between atoms: _310  and  _311
REMARK  129  A    between atoms: _310  and  _313
REMARK  130  A    between atoms: _313  and  _314
REMARK  131  A    between atoms: _317  and  _319
REMARK  132  A    between atoms: _319  and  _320
REMARK  133  A    between atoms: _319  and  _322
REMARK  134  A    between atoms: _322  and  _323
REMARK  135  A    between atoms: _326  and  _328
REMARK  136  A    between atoms: _328  and  _329
REMARK  137  A    between atoms: _328  and  _331
REMARK  138  A    between atoms: _331  and  _332
REMARK  139  A    between atoms: _335  and  _337
REMARK  140  A    between atoms: _337  and  _338
REMARK  141  A    between atoms: _337  and  _340
REMARK  142  A    between atoms: _340  and  _341
REMARK  143  A    between atoms: _344  and  _346
REMARK  144  A    between atoms: _346  and  _347
REMARK  145  A    between atoms: _349  and  _351
REMARK  146  A    between atoms: _351  and  _352
REMARK  147  A    between atoms: _355  and  _357
REMARK  148  A    between atoms: _357  and  _358
REMARK  149  A    between atoms: _357  and  _360
REMARK  150  A    between atoms: _360  and  _361
REMARK  151  A    between atoms: _364  and  _366
REMARK  152  A    between atoms: _366  and  _367
REMARK  153  A    between atoms: _366  and  _369
REMARK  154  A    between atoms: _369  and  _370
REMARK  155  A    between atoms: _373  and  _375
REMARK  156  A    between atoms: _375  and  _376
REMARK  157  A    between atoms: _375  and  _378
REMARK  158  A    between atoms: _378  and  _379
REMARK  159  A    between atoms: _382  and  _384
REMARK  160  A    between atoms: _384  and  _385
REMARK  161  A    between atoms: _384  and  _387
REMARK  162  A    between atoms: _390  and  _392
REMARK  163  A    between atoms: _392  and  _393
REMARK  164  A    between atoms: _392  and  _395
REMARK  165  A    between atoms: _395  and  _396
REMARK  166  A    between atoms: _399  and  _401
REMARK  167  A    between atoms: _401  and  _402
REMARK  168  A    between atoms: _401  and  _404
REMARK  169  A    between atoms: _404  and  _405
REMARK  170  A    between atoms: _405  and  _406
REMARK  171  A    between atoms: _406  and  _407
REMARK  172  A    between atoms: _407  and  _408
REMARK  173  A    between atoms: _412  and  _414
REMARK  174  A    between atoms: _414  and  _415
REMARK  175  A    between atoms: _414  and  _417
REMARK  176  A    between atoms: _417  and  _418
REMARK  177  A    between atoms: _418  and  _419
REMARK  178  A    between atoms: _421  and  _423
REMARK  179  A    between atoms: _423  and  _424
REMARK  180  A    between atoms: _423  and  _426
REMARK  181  A    between atoms: _426  and  _427
REMARK  182  A    between atoms: _430  and  _432
REMARK  183  A    between atoms: _432  and  _433
REMARK  184  A    between atoms: _435  and  _437
REMARK  185  A    between atoms: _437  and  _438
REMARK  186  A    between atoms: _440  and  _442
REMARK  187  A    between atoms: _442  and  _443
REMARK  188  A    between atoms: _442  and  _445
REMARK  189  A    between atoms: _445  and  _446
REMARK  190  A    between atoms: _449  and  _451
REMARK  191  A    between atoms: _451  and  _452
REMARK  192  A    between atoms: _454  and  _456
REMARK  193  A    between atoms: _456  and  _457
REMARK  194  A    between atoms: _459  and  _461
REMARK  195  A    between atoms: _461  and  _462
REMARK  196  A    between atoms: _461  and  _464
REMARK  197  A    between atoms: _464  and  _465
REMARK  198  A    between atoms: _471  and  _473
REMARK  199  A    between atoms: _473  and  _474
REMARK  200  A    between atoms: _473  and  _476
REMARK  201  A    between atoms: _476  and  _477
REMARK  202  A    between atoms: _480  and  _482
REMARK  203  A    between atoms: _482  and  _483
REMARK  204  A    between atoms: _482  and  _485
REMARK  205  A    between atoms: _488  and  _490
REMARK  206  A    between atoms: _490  and  _491
REMARK  207  A    between atoms: _490  and  _493
REMARK  208  A    between atoms: _493  and  _494
REMARK  209  A    between atoms: _497  and  _499
REMARK  210  A    between atoms: _499  and  _500
REMARK  211  A    between atoms: _499  and  _502
REMARK  212  A    between atoms: _502  and  _503
REMARK  213  A    between atoms: _507  and  _508
REMARK  214  A    between atoms: _513  and  _515
REMARK  215  A    between atoms: _515  and  _516
REMARK  216  A    between atoms: _515  and  _518
REMARK  217  A    between atoms: _518  and  _519
REMARK  218  A    between atoms: _522  and  _524
REMARK  219  A    between atoms: _524  and  _525
REMARK  220  A    between atoms: _524  and  _527
REMARK  221  A    between atoms: _527  and  _528
REMARK  222  A    between atoms: _533  and  _535
REMARK  223  A    between atoms: _535  and  _536
REMARK  224  A    between atoms: _535  and  _538
REMARK  225  A    between atoms: _541  and  _543
REMARK  226  A    between atoms: _543  and  _544
REMARK  227  A    between atoms: _543  and  _546
REMARK  228  A    between atoms: _546  and  _547
REMARK  229  A    between atoms: _550  and  _552
REMARK  230  A    between atoms: _552  and  _553
REMARK  231  A    between atoms: _555  and  _557
REMARK  232  A    between atoms: _557  and  _558
REMARK  233  A    between atoms: _557  and  _560
REMARK  234  A    between atoms: _560  and  _561
REMARK  235  A    between atoms: _561  and  _562
REMARK  236  A    between atoms: _562  and  _563
REMARK  237  A    between atoms: _572  and  _574
REMARK  238  A    between atoms: _574  and  _575
REMARK  239  A    between atoms: _574  and  _577
REMARK  240  A    between atoms: _577  and  _578
REMARK                            x       y       z     vdW  Elec       q    Type
REMARK                         _______ _______ _______ _____ _____    ______ ____
ROOT
ATOM      1  C   ALA A   6       8.627  -3.155  21.084  0.00  0.00    +0.241 C 
ATOM      2  O   ALA A   6       9.046  -2.477  22.028  0.00  0.00    -0.273 OA
ATOM      3  N   ASP A   7       8.633  -4.492  21.092  0.00  0.00    -0.297 N 
ATOM      4  H   ASP A   7       8.249  -5.011  20.277  0.00  0.00    +0.150 HD
ENDROOT
BRANCH   1   5
ATOM      5  CA  ALA A   6       8.054  -2.467  19.842  0.00  0.00    +0.149 C 
ATOM      6  CB  ALA A   6       9.166  -1.754  19.074  0.00  0.00    +0.031 C 
BRANCH   5   8
ATOM      7  C   GLY A   5       5.745  -1.829  20.247  0.00  0.00    +0.243 C 
ATOM      8  N   ALA A   6       7.033  -1.508  20.238  0.00  0.00    -0.297 N 
ATOM      9  H   ALA A   6       7.319  -0.549  20.520  0.00  0.00    +0.150 HD
ATOM     10  O   GLY A   5       5.337  -2.949  19.914  0.00  0.00    -0.273 OA
BRANCH   7  11
ATOM     11  CA  GLY A   5       4.770  -0.741  20.685  0.00  0.00    +0.176 C 
BRANCH  11  14
ATOM     12  C   THR A   4       5.644   0.515  22.572  0.00  0.00    +0.243 C 
ATOM     13  O   THR A   4       5.422  -0.407  23.356  0.00  0.00    -0.273 OA
ATOM     14  N   GLY A   5       5.374   0.446  21.268  0.00  0.00    -0.295 N 
ATOM     15  H   GLY A   5       5.600   1.256  20.657  0.00  0.00    +0.150 HD
BRANCH  12  16
ATOM     16  CA  THR A   4       6.267   1.818  23.078  0.00  0.00    +0.176 C 
BRANCH  16  18
ATOM     17  C   ASP A   3       7.833   2.180  21.265  0.00  0.00    +0.241 C 
ATOM     18  N   THR A   4       6.814   2.617  21.995  0.00  0.00    -0.295 N 
ATOM     19  H   THR A   4       6.400   3.548  21.788  0.00  0.00    +0.150 HD
ATOM     20  O   ASP A   3       8.352   1.074  21.438  0.00  0.00    -0.273 OA
BRANCH  17  21
ATOM     21  CA  ASP A   3       8.307   3.102  20.141  0.00  0.00    +0.160 C 
BRANCH  21  24
ATOM     22  C   LEU A   2       9.410   5.266  20.476  0.00  0.00    +0.241 C 
ATOM     23  O   LEU A   2       8.355   5.903  20.427  0.00  0.00    -0.273 OA
ATOM     24  N   ASP A   3       9.472   3.938  20.416  0.00  0.00    -0.297 N 
ATOM     25  H   ASP A   3      10.390   3.475  20.572  0.00  0.00    +0.150 HD
BRANCH  22  26
ATOM     26  CA  LEU A   2      10.744   5.976  20.646  0.00  0.00    +0.149 C 
BRANCH  26  28
ATOM     27  C   LEU A   1      11.634   5.873  18.376  0.00  0.00    +0.238 C 
ATOM     28  N   LEU A   2      11.011   6.564  19.331  0.00  0.00    -0.297 N 
ATOM     29  H   LEU A   2      10.708   7.540  19.139  0.00  0.00    +0.150 HD
ATOM     30  O   LEU A   1      12.064   4.732  18.561  0.00  0.00    -0.274 OA
BRANCH  27  31
ATOM     31  CA  LEU A   1      11.832   6.566  17.015  0.00  0.00    +0.145 C 
BRANCH  31  32
ATOM     32  N   LEU A   1      13.198   6.374  16.555  0.00  0.00    -0.238 NA
ATOM     33  H   LEU A   1      13.422   5.507  16.027  0.00  0.00    +0.142 HD
ENDBRANCH  31  32
BRANCH  31  34
ATOM     34  CB  LEU A   1      10.906   5.956  15.970  0.00  0.00    +0.026 C 
BRANCH  34  35
ATOM     35  CG  LEU A   1       9.387   5.924  16.072  0.00  0.00    +0.002 C 
ATOM     36  CD2 LEU A   1       8.810   7.325  16.025  0.00  0.00    +0.000 C 
ATOM     37  CD1 LEU A   1       8.867   5.123  14.898  0.00  0.00    +0.000 C 
ENDBRANCH  34  35
ENDBRANCH  31  34
ENDBRANCH  27  31
ENDBRANCH  26  28
BRANCH  26  38
ATOM     38  CB  LEU A   2      10.641   7.056  21.723  0.00  0.00    +0.029 C 
BRANCH  38  39
ATOM     39  CG  LEU A   2      11.866   7.963  21.910  0.00  0.00    +0.002 C 
ATOM     40  CD2 LEU A   2      11.560   8.968  23.006  0.00  0.00    +0.000 C 
ATOM     41  CD1 LEU A   2      13.107   7.150  22.268  0.00  0.00    +0.000 C 
ENDBRANCH  38  39
ENDBRANCH  26  38
ENDBRANCH  22  26
ENDBRANCH  21  24
BRANCH  21  42
ATOM     42  CB  ASP A   3       8.633   2.263  18.900  0.00  0.00    +0.143 C 
BRANCH  42  43
ATOM     43  CG  ASP A   3       7.422   1.593  18.294  0.00  0.00    +0.367 C 
ATOM     44  OD2 ASP A   3       6.342   1.567  18.934  0.00  0.00    -0.246 OA
ATOM     45  OD1 ASP A   3       7.572   1.080  17.165  0.00  0.00    -0.246 OA
ENDBRANCH  42  43
ENDBRANCH  21  42
ENDBRANCH  17  21
ENDBRANCH  16  18
BRANCH  16  46
ATOM     46  CB  THR A   4       5.189   2.603  23.870  0.00  0.00    +0.137 C 
ATOM     47  CG2 THR A   4       5.804   3.815  24.534  0.00  0.00    +0.034 C 
BRANCH  46  48
ATOM     48  OG1 THR A   4       4.146   3.026  22.981  0.00  0.00    -0.382 OA
ATOM     49  HG1 THR A   4       3.731   2.232  22.560  0.00  0.00    +0.210 HD
ENDBRANCH  46  48
ENDBRANCH  16  46
ENDBRANCH  12  16
ENDBRANCH  11  14
ENDBRANCH   7  11
ENDBRANCH   5   8
ENDBRANCH   1   5
BRANCH   3  50
ATOM     50  CA  ASP A   7       9.173  -5.236  22.233  0.00  0.00    +0.160 C 
BRANCH  50  51
ATOM     51  C   ASP A   7      10.690  -5.181  22.209  0.00  0.00    +0.241 C 
ATOM     52  O   ASP A   7      11.336  -5.226  23.260  0.00  0.00    -0.273 OA
ATOM     53  N   ASP A   8      11.242  -5.105  20.999  0.00  0.00    -0.297 N 
ATOM     54  H   ASP A   8      10.616  -5.082  20.169  0.00  0.00    +0.150 HD
BRANCH  53  55
ATOM     55  CA  ASP A   8      12.682  -5.052  20.786  0.00  0.00    +0.160 C 
BRANCH  55  56
ATOM     56  C   ASP A   8      13.078  -3.755  20.102  0.00  0.00    +0.241 C 
ATOM     57  N   THR A   9      14.387  -3.559  20.012  0.00  0.00    -0.295 N 
ATOM     58  H   THR A   9      15.019  -4.270  20.431  0.00  0.00    +0.150 HD
ATOM     59  O   ASP A   8      12.229  -2.976  19.660  0.00  0.00    -0.273 OA
BRANCH  57  60
ATOM     60  CA  THR A   9      14.986  -2.410  19.363  0.00  0.00    +0.176 C 
BRANCH  60  61
ATOM     61  C   THR A   9      15.560  -2.905  18.035  0.00  0.00    +0.243 C 
ATOM     62  O   THR A   9      16.340  -3.863  18.001  0.00  0.00    -0.273 OA
ATOM     63  N   VAL A  10      15.163  -2.257  16.947  0.00  0.00    -0.297 N 
ATOM     64  H   VAL A  10      14.502  -1.460  17.045  0.00  0.00    +0.150 HD
BRANCH  63  65
ATOM     65  CA  VAL A  10      15.629  -2.632  15.622  0.00  0.00    +0.149 C 
BRANCH  65  66
ATOM     66  C   VAL A  10      16.248  -1.439  14.915  0.00  0.00    +0.241 C 
ATOM     67  O   VAL A  10      15.609  -0.410  14.732  0.00  0.00    -0.273 OA
ATOM     68  N   LEU A  11      17.497  -1.590  14.504  0.00  0.00    -0.298 N 
ATOM     69  H   LEU A  11      17.982  -2.496  14.666  0.00  0.00    +0.150 HD
BRANCH  68  70
ATOM     70  CA  LEU A  11      18.202  -0.516  13.832  0.00  0.00    +0.137 C 
BRANCH  70  71
ATOM     71  C   LEU A  11      18.501  -0.843  12.382  0.00  0.00    +0.227 C 
ATOM     72  O   LEU A  11      18.523  -2.008  11.979  0.00  0.00    -0.286 OA
ENDBRANCH  70  71
BRANCH  70  73
ATOM     73  CB  LEU A  11      19.505  -0.214  14.570  0.00  0.00    +0.028 C 
BRANCH  73  74
ATOM     74  CG  LEU A  11      19.293   0.109  16.050  0.00  0.00    +0.002 C 
ATOM     75  CD2 LEU A  11      20.629   0.247  16.756  0.00  0.00    +0.000 C 
ATOM     76  CD1 LEU A  11      18.487   1.390  16.170  0.00  0.00    +0.000 C 
ENDBRANCH  73  74
ENDBRANCH  70  73
ENDBRANCH  68  70
ENDBRANCH  65  66
BRANCH  65  77
ATOM     77  CB  VAL A  10      14.476  -3.167  14.757  0.00  0.00    +0.027 C 
ATOM     78  CG2 VAL A  10      13.684  -4.187  15.533  0.00  0.00    +0.002 C 
ATOM     79  CG1 VAL A  10      15.025  -3.779  13.485  0.00  0.00    +0.002 C 
ENDBRANCH  65  77
ENDBRANCH  63  65
ENDBRANCH  60  61
BRANCH  60  80
ATOM     80  CB  THR A   9      16.126  -1.833  20.220  0.00  0.00    +0.137 C 
ATOM     81  CG2 THR A   9      16.912  -0.781  19.441  0.00  0.00    +0.034 C 
BRANCH  80  82
ATOM     82  OG1 THR A   9      15.575  -1.255  21.406  0.00  0.00    -0.382 OA
ATOM     83  HG1 THR A   9      15.093  -1.952  21.918  0.00  0.00    +0.210 HD
ENDBRANCH  80  82
ENDBRANCH  60  80
ENDBRANCH  57  60
ENDBRANCH  55  56
BRANCH  55  84
ATOM     84  CB  ASP A   8      13.134  -6.206  19.891  0.00  0.00    +0.143 C 
BRANCH  84  85
ATOM     85  CG  ASP A   8      12.639  -7.542  20.374  0.00  0.00    +0.367 C 
ATOM     86  OD2 ASP A   8      13.021  -7.946  21.487  0.00  0.00    -0.246 OA
ATOM     87  OD1 ASP A   8      11.857  -8.184  19.640  0.00  0.00    -0.246 OA
ENDBRANCH  84  85
ENDBRANCH  55  84
ENDBRANCH  53  55
ENDBRANCH  50  51
BRANCH  50  88
ATOM     88  CB  ASP A   7       8.761  -6.710  22.208  0.00  0.00    +0.143 C 
BRANCH  88  89
ATOM     89  CG  ASP A   7       7.263  -6.905  22.216  0.00  0.00    +0.367 C 
ATOM     90  OD2 ASP A   7       6.563  -6.218  22.994  0.00  0.00    -0.246 OA
ATOM     91  OD1 ASP A   7       6.788  -7.762  21.447  0.00  0.00    -0.246 OA
ENDBRANCH  88  89
ENDBRANCH  50  88
ENDBRANCH   3  50
TORSDOF 39
REMARK  Name = ../refined-set-2016/1k6c/1k6c_pocket.pdb
REMARK  240 active torsions:
REMARK  status: ('A' for Active; 'I' for Inactive)
REMARK    1  A    between atoms: _1  and  _3
REMARK    2  A    between atoms: _3  and  _4
REMARK    3  A    between atoms: _3  and  _6
REMARK    4  A    between atoms: _6  and  _7
REMARK    5  A    between atoms: _7  and  _8
REMARK    6  A    between atoms: _8  and  _9
REMARK    7  A    between atoms: _18  and  _20
REMARK    8  A    between atoms: _20  and  _21
REMARK    9  A    between atoms: _20  and  _23
REMARK   10  A    between atoms: _23  and  _24
REMARK   11  A    between atoms: _27  and  _29
REMARK   12  A    between atoms: _29  and  _30
REMARK   13  A    between atoms: _29  and  _32
REMARK   14  A    between atoms: _32  and  _33
REMARK   15  A    between atoms: _36  and  _38
REMARK   16  A    between atoms: _38  and  _39
REMARK   17  A    between atoms: _38  and  _41
REMARK   18  A    between atoms: _41  and  _42
REMARK   19  A    between atoms: _45  and  _47
REMARK   20  A    between atoms: _47  and  _48
REMARK   21  A    between atoms: _47  and  _50
REMARK   22  A    between atoms: _50  and  _51
REMARK   23  A    between atoms: _54  and  _56
REMARK   24  A    between atoms: _56  and  _57
REMARK   25  A    between atoms: _56  and  _59
REMARK   26  A    between atoms: _59  and  _60
REMARK   27  A    between atoms: _63  and  _65
REMARK   28  A    between atoms: _65  and  _66
REMARK   29  A    between atoms: _68  and  _70
REMARK   30  A    between atoms: _70  and  _71
REMARK   31  A    between atoms: _74  and  _76
REMARK   32  A    between atoms: _76  and  _77
REMARK   33  A    between atoms: _76  and  _79
REMARK   34  A    between atoms: _79  and  _80
REMARK   35  A    between atoms: _83  and  _85
REMARK   36  A    between atoms: _85  and  _86
REMARK   37  A    between atoms: _85  and  _88
REMARK   38  A    between atoms: _88  and  _89
REMARK   39  A    between atoms: _92  and  _94
REMARK   40  A    between atoms: _94  and  _95
REMARK   41  A    between atoms: _94  and  _97
REMARK   42  A    between atoms: _97  and  _98
REMARK   43  A    between atoms: _101  and  _103
REMARK   44  A    between atoms: _103  and  _104
REMARK   45  A    between atoms: _103  and  _106
REMARK   46  A    between atoms: _109  and  _111
REMARK   47  A    between atoms: _111  and  _112
REMARK   48  A    between atoms: _111  and  _114
REMARK   49  A    between atoms: _114  and  _115
REMARK   50  A    between atoms: _118  and  _120
REMARK   51  A    between atoms: _120  and  _121
REMARK   52  A    between atoms: _120  and  _123
REMARK   53  A    between atoms: _123  and  _124
REMARK   54  A    between atoms: _124  and  _125
REMARK   55  A    between atoms: _125  and  _126
REMARK   56  A    between atoms: _126  and  _127
REMARK   57  A    between atoms: _131  and  _133
REMARK   58  A    between atoms: _133  and  _134
REMARK   59  A    between atoms: _133  and  _136
REMARK   60  A    between atoms: _136  and  _137
REMARK   61  A    between atoms: _137  and  _138
REMARK   62  A    between atoms: _140  and  _142
REMARK   63  A    between atoms: _142  and  _143
REMARK   64  A    between atoms: _142  and  _145
REMARK   65  A    between atoms: _145  and  _146
REMARK   66  A    between atoms: _149  and  _151
REMARK   67  A    between atoms: _151  and  _152
REMARK   68  A    between atoms: _154  and  _156
REMARK   69  A    between atoms: _156  and  _157
REMARK   70  A    between atoms: _159  and  _161
REMARK   71  A    between atoms: _161  and  _162
REMARK   72  A    between atoms: _161  and  _164
REMARK   73  A    between atoms: _164  and  _165
REMARK   74  A    between atoms: _168  and  _170
REMARK   75  A    between atoms: _170  and  _171
REMARK   76  A    between atoms: _173  and  _175
REMARK   77  A    between atoms: _175  and  _176
REMARK   78  A    between atoms: _178  and  _180
REMARK   79  A    between atoms: _180  and  _181
REMARK   80  A    between atoms: _180  and  _183
REMARK   81  A    between atoms: _183  and  _184
REMARK   82  A    between atoms: _190  and  _192
REMARK   83  A    between atoms: _192  and  _193
REMARK   84  A    between atoms: _192  and  _195
REMARK   85  A    between atoms: _195  and  _196
REMARK   86  A    between atoms: _199  and  _201
REMARK   87  A    between atoms: _201  and  _202
REMARK   88  A    between atoms: _201  and  _204
REMARK   89  A    between atoms: _207  and  _209
REMARK   90  A    between atoms: _209  and  _210
REMARK   91  A    between atoms: _209  and  _212
REMARK   92  A    between atoms: _212  and  _213
REMARK   93  A    between atoms: _216  and  _218
REMARK   94  A    between atoms: _218  and  _219
REMARK   95  A    between atoms: _218  and  _221
REMARK   96  A    between atoms: _221  and  _222
REMARK   97  A    between atoms: _226  and  _227
REMARK   98  A    between atoms: _232  and  _234
REMARK   99  A    between atoms: _234  and  _235
REMARK  100  A    between atoms: _234  and  _237
REMARK  101  A    between atoms: _237  and  _238
REMARK  102  A    between atoms: _241  and  _243
REMARK  103  A    between atoms: _243  and  _244
REMARK  104  A    between atoms: _243  and  _246
REMARK  105  A    between atoms: _246  and  _247
REMARK  106  A    between atoms: _252  and  _254
REMARK  107  A    between atoms: _254  and  _255
REMARK  108  A    between atoms: _254  and  _257
REMARK  109  A    between atoms: _260  and  _262
REMARK  110  A    between atoms: _262  and  _263
REMARK  111  A    between atoms: _262  and  _265
REMARK  112  A    between atoms: _265  and  _266
REMARK  113  A    between atoms: _269  and  _271
REMARK  114  A    between atoms: _271  and  _272
REMARK  115  A    between atoms: _274  and  _276
REMARK  116  A    between atoms: _276  and  _277
REMARK  117  A    between atoms: _276  and  _279
REMARK  118  A    between atoms: _279  and  _280
REMARK  119  A    between atoms: _280  and  _281
REMARK  120  A    between atoms: _281  and  _282
REMARK  121  A    between atoms: _291  and  _293
REMARK  122  A    between atoms: _293  and  _294
REMARK  123  A    between atoms: _293  and  _296
REMARK  124  A    between atoms: _296  and  _297
REMARK  125  A    between atoms: _297  and  _298
REMARK  126  A    between atoms: _298  and  _299
REMARK  127  A    between atoms: _308  and  _310
REMARK  128  A    between atoms: _310  and  _311
REMARK  129  A    between atoms: _310  and  _313
REMARK  130  A    between atoms: _313  and  _314
REMARK  131  A    between atoms: _317  and  _319
REMARK  132  A    between atoms: _319  and  _320
REMARK  133  A    between atoms: _319  and  _322
REMARK  134  A    between atoms: _322  and  _323
REMARK  135  A    between atoms: _326  and  _328
REMARK  136  A    between atoms: _328  and  _329
REMARK  137  A    between atoms: _328  and  _331
REMARK  138  A    between atoms: _331  and  _332
REMARK  139  A    between atoms: _335  and  _337
REMARK  140  A    between atoms: _337  and  _338
REMARK  141  A    between atoms: _337  and  _340
REMARK  142  A    between atoms: _340  and  _341
REMARK  143  A    between atoms: _344  and  _346
REMARK  144  A    between atoms: _346  and  _347
REMARK  145  A    between atoms: _349  and  _351
REMARK  146  A    between atoms: _351  and  _352
REMARK  147  A    between atoms: _355  and  _357
REMARK  148  A    between atoms: _357  and  _358
REMARK  149  A    between atoms: _357  and  _360
REMARK  150  A    between atoms: _360  and  _361
REMARK  151  A    between atoms: _364  and  _366
REMARK  152  A    between atoms: _366  and  _367
REMARK  153  A    between atoms: _366  and  _369
REMARK  154  A    between atoms: _369  and  _370
REMARK  155  A    between atoms: _373  and  _375
REMARK  156  A    between atoms: _375  and  _376
REMARK  157  A    between atoms: _375  and  _378
REMARK  158  A    between atoms: _378  and  _379
REMARK  159  A    between atoms: _382  and  _384
REMARK  160  A    between atoms: _384  and  _385
REMARK  161  A    between atoms: _384  and  _387
REMARK  162  A    between atoms: _390  and  _392
REMARK  163  A    between atoms: _392  and  _393
REMARK  164  A    between atoms: _392  and  _395
REMARK  165  A    between atoms: _395  and  _396
REMARK  166  A    between atoms: _399  and  _401
REMARK  167  A    between atoms: _401  and  _402
REMARK  168  A    between atoms: _401  and  _404
REMARK  169  A    between atoms: _404  and  _405
REMARK  170  A    between atoms: _405  and  _406
REMARK  171  A    between atoms: _406  and  _407
REMARK  172  A    between atoms: _407  and  _408
REMARK  173  A    between atoms: _412  and  _414
REMARK  174  A    between atoms: _414  and  _415
REMARK  175  A    between atoms: _414  and  _417
REMARK  176  A    between atoms: _417  and  _418
REMARK  177  A    between atoms: _418  and  _419
REMARK  178  A    between atoms: _421  and  _423
REMARK  179  A    between atoms: _423  and  _424
REMARK  180  A    between atoms: _423  and  _426
REMARK  181  A    between atoms: _426  and  _427
REMARK  182  A    between atoms: _430  and  _432
REMARK  183  A    between atoms: _432  and  _433
REMARK  184  A    between atoms: _435  and  _437
REMARK  185  A    between atoms: _437  and  _438
REMARK  186  A    between atoms: _440  and  _442
REMARK  187  A    between atoms: _442  and  _443
REMARK  188  A    between atoms: _442  and  _445
REMARK  189  A    between atoms: _445  and  _446
REMARK  190  A    between atoms: _449  and  _451
REMARK  191  A    between atoms: _451  and  _452
REMARK  192  A    between atoms: _454  and  _456
REMARK  193  A    between atoms: _456  and  _457
REMARK  194  A    between atoms: _459  and  _461
REMARK  195  A    between atoms: _461  and  _462
REMARK  196  A    between atoms: _461  and  _464
REMARK  197  A    between atoms: _464  and  _465
REMARK  198  A    between atoms: _471  and  _473
REMARK  199  A    between atoms: _473  and  _474
REMARK  200  A    between atoms: _473  and  _476
REMARK  201  A    between atoms: _476  and  _477
REMARK  202  A    between atoms: _480  and  _482
REMARK  203  A    between atoms: _482  and  _483
REMARK  204  A    between atoms: _482  and  _485
REMARK  205  A    between atoms: _488  and  _490
REMARK  206  A    between atoms: _490  and  _491
REMARK  207  A    between atoms: _490  and  _493
REMARK  208  A    between atoms: _493  and  _494
REMARK  209  A    between atoms: _497  and  _499
REMARK  210  A    between atoms: _499  and  _500
REMARK  211  A    between atoms: _499  and  _502
REMARK  212  A    between atoms: _502  and  _503
REMARK  213  A    between atoms: _507  and  _508
REMARK  214  A    between atoms: _513  and  _515
REMARK  215  A    between atoms: _515  and  _516
REMARK  216  A    between atoms: _515  and  _518
REMARK  217  A    between atoms: _518  and  _519
REMARK  218  A    between atoms: _522  and  _524
REMARK  219  A    between atoms: _524  and  _525
REMARK  220  A    between atoms: _524  and  _527
REMARK  221  A    between atoms: _527  and  _528
REMARK  222  A    between atoms: _533  and  _535
REMARK  223  A    between atoms: _535  and  _536
REMARK  224  A    between atoms: _535  and  _538
REMARK  225  A    between atoms: _541  and  _543
REMARK  226  A    between atoms: _543  and  _544
REMARK  227  A    between atoms: _543  and  _546
REMARK  228  A    between atoms: _546  and  _547
REMARK  229  A    between atoms: _550  and  _552
REMARK  230  A    between atoms: _552  and  _553
REMARK  231  A    between atoms: _555  and  _557
REMARK  232  A    between atoms: _557  and  _558
REMARK  233  A    between atoms: _557  and  _560
REMARK  234  A    between atoms: _560  and  _561
REMARK  235  A    between atoms: _561  and  _562
REMARK  236  A    between atoms: _562  and  _563
REMARK  237  A    between atoms: _572  and  _574
REMARK  238  A    between atoms: _574  and  _575
REMARK  239  A    between atoms: _574  and  _577
REMARK  240  A    between atoms: _577  and  _578
REMARK                            x       y       z     vdW  Elec       q    Type
REMARK                         _______ _______ _______ _____ _____    ______ ____
ROOT
ATOM      1  C   GLY A   5       4.434  -6.465  11.636  0.00  0.00    +0.243 C 
ATOM      2  N   ILE A   6       3.862  -5.296  11.359  0.00  0.00    -0.297 N 
ATOM      3  H   ILE A   6       4.343  -4.418  11.641  0.00  0.00    +0.150 HD
ATOM      4  O   GLY A   5       3.918  -7.542  11.320  0.00  0.00    -0.273 OA
ENDROOT
BRANCH   2   5
ATOM      5  CA  ILE A   6       2.572  -5.210  10.667  0.00  0.00    +0.149 C 
BRANCH   5   6
ATOM      6  C   ILE A   6       2.479  -5.900   9.303  0.00  0.00    +0.241 C 
ATOM      7  O   ILE A   6       1.441  -6.460   8.970  0.00  0.00    -0.273 OA
ATOM      8  N   GLY A   7       3.545  -5.855   8.512  0.00  0.00    -0.295 N 
ATOM      9  H   GLY A   7       4.416  -5.387   8.833  0.00  0.00    +0.150 HD
BRANCH   8  10
ATOM     10  CA  GLY A   7       3.485  -6.465   7.193  0.00  0.00    +0.176 C 
BRANCH  10  11
ATOM     11  C   GLY A   7       4.210  -7.783   7.017  0.00  0.00    +0.243 C 
ATOM     12  N   GLY A   8       4.443  -8.487   8.115  0.00  0.00    -0.295 N 
ATOM     13  H   GLY A   8       4.107  -8.139   9.035  0.00  0.00    +0.150 HD
ATOM     14  O   GLY A   7       4.523  -8.179   5.896  0.00  0.00    -0.273 OA
BRANCH  12  15
ATOM     15  CA  GLY A   8       5.165  -9.741   8.037  0.00  0.00    +0.176 C 
BRANCH  15  16
ATOM     16  C   GLY A   8       6.434  -9.815   8.859  0.00  0.00    +0.243 C 
ATOM     17  O   GLY A   8       6.656  -9.005   9.763  0.00  0.00    -0.273 OA
ATOM     18  N   PHE A   9       7.270 -10.797   8.544  0.00  0.00    -0.297 N 
ATOM     19  H   PHE A   9       7.023 -11.440   7.765  0.00  0.00    +0.150 HD
BRANCH  18  20
ATOM     20  CA  PHE A   9       8.524 -11.000   9.259  0.00  0.00    +0.153 C 
BRANCH  20  21
ATOM     21  C   PHE A   9       9.737 -10.590   8.442  0.00  0.00    +0.241 C 
ATOM     22  N   ILE A  10      10.807 -10.206   9.128  0.00  0.00    -0.298 N 
ATOM     23  H   ILE A  10      10.756 -10.161  10.166  0.00  0.00    +0.150 HD
ATOM     24  O   PHE A   9       9.706 -10.624   7.219  0.00  0.00    -0.273 OA
BRANCH  22  25
ATOM     25  CA  ILE A  10      12.051  -9.846   8.460  0.00  0.00    +0.137 C 
BRANCH  25  26
ATOM     26  C   ILE A  10      13.171 -10.548   9.197  0.00  0.00    +0.227 C 
ATOM     27  O   ILE A  10      13.049 -10.845  10.392  0.00  0.00    -0.286 OA
ENDBRANCH  25  26
BRANCH  25  28
ATOM     28  CB  ILE A  10      12.344  -8.338   8.502  0.00  0.00    +0.026 C 
ATOM     29  CG2 ILE A  10      11.281  -7.570   7.718  0.00  0.00    +0.002 C 
BRANCH  28  30
ATOM     30  CG1 ILE A  10      12.408  -7.858   9.941  0.00  0.00    +0.002 C 
ATOM     31  CD1 ILE A  10      12.908  -6.427  10.048  0.00  0.00    +0.000 C 
ENDBRANCH  28  30
ENDBRANCH  25  28
ENDBRANCH  22  25
ENDBRANCH  20  21
BRANCH  20  32
ATOM     32  CB  PHE A   9       8.692 -12.476   9.638  0.00  0.00    +0.055 C 
BRANCH  32  33
ATOM     33  CG  PHE A   9       7.898 -12.903  10.840  0.00  0.00    -0.020 A 
ATOM     34  CD2 PHE A   9       8.532 -13.090  12.067  0.00  0.00    -0.004 A 
ATOM     35  CE2 PHE A   9       7.802 -13.494  13.191  0.00  0.00    -0.000 A 
ATOM     36  CZ  PHE A   9       6.426 -13.713  13.084  0.00  0.00    -0.000 A 
ATOM     37  CE1 PHE A   9       5.790 -13.529  11.862  0.00  0.00    -0.000 A 
ATOM     38  CD1 PHE A   9       6.522 -13.127  10.749  0.00  0.00    -0.004 A 
ENDBRANCH  32  33
ENDBRANCH  20  32
ENDBRANCH  18  20
ENDBRANCH  15  16
ENDBRANCH  12  15
ENDBRANCH  10  11
ENDBRANCH   8  10
ENDBRANCH   5   6
BRANCH   5  39
ATOM     39  CB  ILE A   6       2.137  -3.728  10.478  0.00  0.00    +0.027 C 
ATOM     40  CG2 ILE A   6       1.158  -3.601   9.312  0.00  0.00    +0.002 C 
BRANCH  39  41
ATOM     41  CG1 ILE A   6       1.522  -3.192  11.771  0.00  0.00    +0.002 C 
ATOM     42  CD1 ILE A   6       0.181  -3.793  12.110  0.00  0.00    +0.000 C 
ENDBRANCH  39  41
ENDBRANCH   5  39
ENDBRANCH   2   5
BRANCH   1  43
ATOM     43  CA  GLY A   5       5.760  -6.432  12.376  0.00  0.00    +0.176 C 
BRANCH  43  46
ATOM     44  C   GLY A   4       6.793  -8.438  13.244  0.00  0.00    +0.243 C 
ATOM     45  O   GLY A   4       6.744  -8.020  14.401  0.00  0.00    -0.273 OA
ATOM     46  N   GLY A   5       6.373  -7.734  12.203  0.00  0.00    -0.295 N 
ATOM     47  H   GLY A   5       6.485  -8.123  11.245  0.00  0.00    +0.150 HD
BRANCH  44  48
ATOM     48  CA  GLY A   4       7.365  -9.800  12.913  0.00  0.00    +0.176 C 
BRANCH  48  50
ATOM     49  C   ILE A   3       9.722 -10.208  13.127  0.00  0.00    +0.241 C 
ATOM     50  N   GLY A   4       8.527 -10.151  13.698  0.00  0.00    -0.295 N 
ATOM     51  H   GLY A   4       8.425 -10.359  14.712  0.00  0.00    +0.150 HD
ATOM     52  O   ILE A   3       9.908  -9.983  11.928  0.00  0.00    -0.273 OA
BRANCH  49  53
ATOM     53  CA  ILE A   3      10.876 -10.592  14.035  0.00  0.00    +0.149 C 
BRANCH  53  56
ATOM     54  C   MET A   2      12.137 -12.639  13.691  0.00  0.00    +0.241 C 
ATOM     55  O   MET A   2      11.753 -13.107  14.759  0.00  0.00    -0.273 OA
ATOM     56  N   ILE A   3      11.793 -11.427  13.267  0.00  0.00    -0.297 N 
ATOM     57  H   ILE A   3      12.184 -11.068  12.373  0.00  0.00    +0.150 HD
BRANCH  54  58
ATOM     58  CA  MET A   2      13.062 -13.436  12.789  0.00  0.00    +0.149 C 
BRANCH  58  60
ATOM     59  C   LYS A   1      15.456 -13.451  13.236  0.00  0.00    +0.238 C 
ATOM     60  N   MET A   2      14.232 -13.871  13.533  0.00  0.00    -0.297 N 
ATOM     61  H   MET A   2      14.106 -14.534  14.325  0.00  0.00    +0.150 HD
ATOM     62  O   LYS A   1      15.700 -12.670  12.313  0.00  0.00    -0.274 OA
BRANCH  59  63
ATOM     63  CA  LYS A   1      16.560 -14.006  14.128  0.00  0.00    +0.145 C 
BRANCH  63  64
ATOM     64  N   LYS A   1      17.877 -14.053  13.507  0.00  0.00    -0.238 NA
ATOM     65  H   LYS A   1      18.095 -13.436  12.698  0.00  0.00    +0.142 HD
ENDBRANCH  63  64
BRANCH  63  66
ATOM     66  CB  LYS A   1      16.628 -13.195  15.426  0.00  0.00    +0.026 C 
BRANCH  66  67
ATOM     67  CG  LYS A   1      15.338 -13.199  16.211  0.00  0.00    -0.000 C 
BRANCH  67  68
ATOM     68  CD  LYS A   1      15.472 -12.449  17.514  0.00  0.00    -0.024 C 
BRANCH  68  69
ATOM     69  CE  LYS A   1      14.177 -12.533  18.294  0.00  0.00    -0.086 C 
BRANCH  69  70
ATOM     70  NZ  LYS A   1      14.306 -11.967  19.657  0.00  0.00    +0.380 N 
ATOM     71  HZ1 LYS A   1      15.034 -12.492  20.182  0.00  0.00    -0.089 HD
ATOM     72  HZ2 LYS A   1      13.395 -12.047  20.152  0.00  0.00    -0.089 HD
ATOM     73  HZ3 LYS A   1      14.579 -10.966  19.591  0.00  0.00    -0.089 HD
ENDBRANCH  69  70
ENDBRANCH  68  69
ENDBRANCH  67  68
ENDBRANCH  66  67
ENDBRANCH  63  66
ENDBRANCH  59  63
ENDBRANCH  58  60
BRANCH  58  74
ATOM     74  CB  MET A   2      12.294 -14.643  12.253  0.00  0.00    +0.041 C 
BRANCH  74  75
ATOM     75  CG  MET A   2      13.058 -15.467  11.245  0.00  0.00    +0.060 C 
BRANCH  75  76
ATOM     76  SD  MET A   2      13.037 -14.699   9.643  0.00  0.00    -0.139 S 
ATOM     77  CE  MET A   2      11.677 -15.569   8.885  0.00  0.00    +0.069 C 
ENDBRANCH  75  76
ENDBRANCH  74  75
ENDBRANCH  58  74
ENDBRANCH  54  58
ENDBRANCH  53  56
BRANCH  53  78
ATOM     78  CB  ILE A   3      11.543  -9.302  14.568  0.00  0.00    +0.027 C 
ATOM     79  CG2 ILE A   3      12.514  -9.645  15.684  0.00  0.00    +0.002 C 
BRANCH  78  80
ATOM     80  CG1 ILE A   3      12.236  -8.554  13.432  0.00  0.00    +0.002 C 
ATOM     81  CD1 ILE A   3      12.719  -7.189  13.832  0.00  0.00    +0.000 C 
ENDBRANCH  78  80
ENDBRANCH  53  78
ENDBRANCH  49  53
ENDBRANCH  48  50
ENDBRANCH  44  48
ENDBRANCH  43  46
ENDBRANCH   1  43
TORSDOF 36
REMARK  Name = ../refined-set-2016/1k6c/1k6c_pocket.pdb
REMARK  240 active torsions:
REMARK  status: ('A' for Active; 'I' for Inactive)
REMARK    1  A    between atoms: _1  and  _3
REMARK    2  A    between atoms: _3  and  _4
REMARK    3  A    between atoms: _3  and  _6
REMARK    4  A    between atoms: _6  and  _7
REMARK    5  A    between atoms: _7  and  _8
REMARK    6  A    between atoms: _8  and  _9
REMARK    7  A    between atoms: _18  and  _20
REMARK    8  A    between atoms: _20  and  _21
REMARK    9  A    between atoms: _20  and  _23
REMARK   10  A    between atoms: _23  and  _24
REMARK   11  A    between atoms: _27  and  _29
REMARK   12  A    between atoms: _29  and  _30
REMARK   13  A    between atoms: _29  and  _32
REMARK   14  A    between atoms: _32  and  _33
REMARK   15  A    between atoms: _36  and  _38
REMARK   16  A    between atoms: _38  and  _39
REMARK   17  A    between atoms: _38  and  _41
REMARK   18  A    between atoms: _41  and  _42
REMARK   19  A    between atoms: _45  and  _47
REMARK   20  A    between atoms: _47  and  _48
REMARK   21  A    between atoms: _47  and  _50
REMARK   22  A    between atoms: _50  and  _51
REMARK   23  A    between atoms: _54  and  _56
REMARK   24  A    between atoms: _56  and  _57
REMARK   25  A    between atoms: _56  and  _59
REMARK   26  A    between atoms: _59  and  _60
REMARK   27  A    between atoms: _63  and  _65
REMARK   28  A    between atoms: _65  and  _66
REMARK   29  A    between atoms: _68  and  _70
REMARK   30  A    between atoms: _70  and  _71
REMARK   31  A    between atoms: _74  and  _76
REMARK   32  A    between atoms: _76  and  _77
REMARK   33  A    between atoms: _76  and  _79
REMARK   34  A    between atoms: _79  and  _80
REMARK   35  A    between atoms: _83  and  _85
REMARK   36  A    between atoms: _85  and  _86
REMARK   37  A    between atoms: _85  and  _88
REMARK   38  A    between atoms: _88  and  _89
REMARK   39  A    between atoms: _92  and  _94
REMARK   40  A    between atoms: _94  and  _95
REMARK   41  A    between atoms: _94  and  _97
REMARK   42  A    between atoms: _97  and  _98
REMARK   43  A    between atoms: _101  and  _103
REMARK   44  A    between atoms: _103  and  _104
REMARK   45  A    between atoms: _103  and  _106
REMARK   46  A    between atoms: _109  and  _111
REMARK   47  A    between atoms: _111  and  _112
REMARK   48  A    between atoms: _111  and  _114
REMARK   49  A    between atoms: _114  and  _115
REMARK   50  A    between atoms: _118  and  _120
REMARK   51  A    between atoms: _120  and  _121
REMARK   52  A    between atoms: _120  and  _123
REMARK   53  A    between atoms: _123  and  _124
REMARK   54  A    between atoms: _124  and  _125
REMARK   55  A    between atoms: _125  and  _126
REMARK   56  A    between atoms: _126  and  _127
REMARK   57  A    between atoms: _131  and  _133
REMARK   58  A    between atoms: _133  and  _134
REMARK   59  A    between atoms: _133  and  _136
REMARK   60  A    between atoms: _136  and  _137
REMARK   61  A    between atoms: _137  and  _138
REMARK   62  A    between atoms: _140  and  _142
REMARK   63  A    between atoms: _142  and  _143
REMARK   64  A    between atoms: _142  and  _145
REMARK   65  A    between atoms: _145  and  _146
REMARK   66  A    between atoms: _149  and  _151
REMARK   67  A    between atoms: _151  and  _152
REMARK   68  A    between atoms: _154  and  _156
REMARK   69  A    between atoms: _156  and  _157
REMARK   70  A    between atoms: _159  and  _161
REMARK   71  A    between atoms: _161  and  _162
REMARK   72  A    between atoms: _161  and  _164
REMARK   73  A    between atoms: _164  and  _165
REMARK   74  A    between atoms: _168  and  _170
REMARK   75  A    between atoms: _170  and  _171
REMARK   76  A    between atoms: _173  and  _175
REMARK   77  A    between atoms: _175  and  _176
REMARK   78  A    between atoms: _178  and  _180
REMARK   79  A    between atoms: _180  and  _181
REMARK   80  A    between atoms: _180  and  _183
REMARK   81  A    between atoms: _183  and  _184
REMARK   82  A    between atoms: _190  and  _192
REMARK   83  A    between atoms: _192  and  _193
REMARK   84  A    between atoms: _192  and  _195
REMARK   85  A    between atoms: _195  and  _196
REMARK   86  A    between atoms: _199  and  _201
REMARK   87  A    between atoms: _201  and  _202
REMARK   88  A    between atoms: _201  and  _204
REMARK   89  A    between atoms: _207  and  _209
REMARK   90  A    between atoms: _209  and  _210
REMARK   91  A    between atoms: _209  and  _212
REMARK   92  A    between atoms: _212  and  _213
REMARK   93  A    between atoms: _216  and  _218
REMARK   94  A    between atoms: _218  and  _219
REMARK   95  A    between atoms: _218  and  _221
REMARK   96  A    between atoms: _221  and  _222
REMARK   97  A    between atoms: _226  and  _227
REMARK   98  A    between atoms: _232  and  _234
REMARK   99  A    between atoms: _234  and  _235
REMARK  100  A    between atoms: _234  and  _237
REMARK  101  A    between atoms: _237  and  _238
REMARK  102  A    between atoms: _241  and  _243
REMARK  103  A    between atoms: _243  and  _244
REMARK  104  A    between atoms: _243  and  _246
REMARK  105  A    between atoms: _246  and  _247
REMARK  106  A    between atoms: _252  and  _254
REMARK  107  A    between atoms: _254  and  _255
REMARK  108  A    between atoms: _254  and  _257
REMARK  109  A    between atoms: _260  and  _262
REMARK  110  A    between atoms: _262  and  _263
REMARK  111  A    between atoms: _262  and  _265
REMARK  112  A    between atoms: _265  and  _266
REMARK  113  A    between atoms: _269  and  _271
REMARK  114  A    between atoms: _271  and  _272
REMARK  115  A    between atoms: _274  and  _276
REMARK  116  A    between atoms: _276  and  _277
REMARK  117  A    between atoms: _276  and  _279
REMARK  118  A    between atoms: _279  and  _280
REMARK  119  A    between atoms: _280  and  _281
REMARK  120  A    between atoms: _281  and  _282
REMARK  121  A    between atoms: _291  and  _293
REMARK  122  A    between atoms: _293  and  _294
REMARK  123  A    between atoms: _293  and  _296
REMARK  124  A    between atoms: _296  and  _297
REMARK  125  A    between atoms: _297  and  _298
REMARK  126  A    between atoms: _298  and  _299
REMARK  127  A    between atoms: _308  and  _310
REMARK  128  A    between atoms: _310  and  _311
REMARK  129  A    between atoms: _310  and  _313
REMARK  130  A    between atoms: _313  and  _314
REMARK  131  A    between atoms: _317  and  _319
REMARK  132  A    between atoms: _319  and  _320
REMARK  133  A    between atoms: _319  and  _322
REMARK  134  A    between atoms: _322  and  _323
REMARK  135  A    between atoms: _326  and  _328
REMARK  136  A    between atoms: _328  and  _329
REMARK  137  A    between atoms: _328  and  _331
REMARK  138  A    between atoms: _331  and  _332
REMARK  139  A    between atoms: _335  and  _337
REMARK  140  A    between atoms: _337  and  _338
REMARK  141  A    between atoms: _337  and  _340
REMARK  142  A    between atoms: _340  and  _341
REMARK  143  A    between atoms: _344  and  _346
REMARK  144  A    between atoms: _346  and  _347
REMARK  145  A    between atoms: _349  and  _351
REMARK  146  A    between atoms: _351  and  _352
REMARK  147  A    between atoms: _355  and  _357
REMARK  148  A    between atoms: _357  and  _358
REMARK  149  A    between atoms: _357  and  _360
REMARK  150  A    between atoms: _360  and  _361
REMARK  151  A    between atoms: _364  and  _366
REMARK  152  A    between atoms: _366  and  _367
REMARK  153  A    between atoms: _366  and  _369
REMARK  154  A    between atoms: _369  and  _370
REMARK  155  A    between atoms: _373  and  _375
REMARK  156  A    between atoms: _375  and  _376
REMARK  157  A    between atoms: _375  and  _378
REMARK  158  A    between atoms: _378  and  _379
REMARK  159  A    between atoms: _382  and  _384
REMARK  160  A    between atoms: _384  and  _385
REMARK  161  A    between atoms: _384  and  _387
REMARK  162  A    between atoms: _390  and  _392
REMARK  163  A    between atoms: _392  and  _393
REMARK  164  A    between atoms: _392  and  _395
REMARK  165  A    between atoms: _395  and  _396
REMARK  166  A    between atoms: _399  and  _401
REMARK  167  A    between atoms: _401  and  _402
REMARK  168  A    between atoms: _401  and  _404
REMARK  169  A    between atoms: _404  and  _405
REMARK  170  A    between atoms: _405  and  _406
REMARK  171  A    between atoms: _406  and  _407
REMARK  172  A    between atoms: _407  and  _408
REMARK  173  A    between atoms: _412  and  _414
REMARK  174  A    between atoms: _414  and  _415
REMARK  175  A    between atoms: _414  and  _417
REMARK  176  A    between atoms: _417  and  _418
REMARK  177  A    between atoms: _418  and  _419
REMARK  178  A    between atoms: _421  and  _423
REMARK  179  A    between atoms: _423  and  _424
REMARK  180  A    between atoms: _423  and  _426
REMARK  181  A    between atoms: _426  and  _427
REMARK  182  A    between atoms: _430  and  _432
REMARK  183  A    between atoms: _432  and  _433
REMARK  184  A    between atoms: _435  and  _437
REMARK  185  A    between atoms: _437  and  _438
REMARK  186  A    between atoms: _440  and  _442
REMARK  187  A    between atoms: _442  and  _443
REMARK  188  A    between atoms: _442  and  _445
REMARK  189  A    between atoms: _445  and  _446
REMARK  190  A    between atoms: _449  and  _451
REMARK  191  A    between atoms: _451  and  _452
REMARK  192  A    between atoms: _454  and  _456
REMARK  193  A    between atoms: _456  and  _457
REMARK  194  A    between atoms: _459  and  _461
REMARK  195  A    between atoms: _461  and  _462
REMARK  196  A    between atoms: _461  and  _464
REMARK  197  A    between atoms: _464  and  _465
REMARK  198  A    between atoms: _471  and  _473
REMARK  199  A    between atoms: _473  and  _474
REMARK  200  A    between atoms: _473  and  _476
REMARK  201  A    between atoms: _476  and  _477
REMARK  202  A    between atoms: _480  and  _482
REMARK  203  A    between atoms: _482  and  _483
REMARK  204  A    between atoms: _482  and  _485
REMARK  205  A    between atoms: _488  and  _490
REMARK  206  A    between atoms: _490  and  _491
REMARK  207  A    between atoms: _490  and  _493
REMARK  208  A    between atoms: _493  and  _494
REMARK  209  A    between atoms: _497  and  _499
REMARK  210  A    between atoms: _499  and  _500
REMARK  211  A    between atoms: _499  and  _502
REMARK  212  A    between atoms: _502  and  _503
REMARK  213  A    between atoms: _507  and  _508
REMARK  214  A    between atoms: _513  and  _515
REMARK  215  A    between atoms: _515  and  _516
REMARK  216  A    between atoms: _515  and  _518
REMARK  217  A    between atoms: _518  and  _519
REMARK  218  A    between atoms: _522  and  _524
REMARK  219  A    between atoms: _524  and  _525
REMARK  220  A    between atoms: _524  and  _527
REMARK  221  A    between atoms: _527  and  _528
REMARK  222  A    between atoms: _533  and  _535
REMARK  223  A    between atoms: _535  and  _536
REMARK  224  A    between atoms: _535  and  _538
REMARK  225  A    between atoms: _541  and  _543
REMARK  226  A    between atoms: _543  and  _544
REMARK  227  A    between atoms: _543  and  _546
REMARK  228  A    between atoms: _546  and  _547
REMARK  229  A    between atoms: _550  and  _552
REMARK  230  A    between atoms: _552  and  _553
REMARK  231  A    between atoms: _555  and  _557
REMARK  232  A    between atoms: _557  and  _558
REMARK  233  A    between atoms: _557  and  _560
REMARK  234  A    between atoms: _560  and  _561
REMARK  235  A    between atoms: _561  and  _562
REMARK  236  A    between atoms: _562  and  _563
REMARK  237  A    between atoms: _572  and  _574
REMARK  238  A    between atoms: _574  and  _575
REMARK  239  A    between atoms: _574  and  _577
REMARK  240  A    between atoms: _577  and  _578
REMARK                            x       y       z     vdW  Elec       q    Type
REMARK                         _______ _______ _______ _____ _____    ______ ____
ROOT
ATOM      1  CA  VAL A   1      17.610  -9.633  11.557  0.00  0.00    +0.133 C 
ENDROOT
BRANCH   1   2
ATOM      2  CB  VAL A   1      16.845  -8.768  12.577  0.00  0.00    +0.023 C 
ATOM      3  CG2 VAL A   1      16.358  -9.641  13.744  0.00  0.00    +0.002 C 
ATOM      4  CG1 VAL A   1      15.674  -8.074  11.897  0.00  0.00    +0.002 C 
ENDBRANCH   1   2
BRANCH   1   5
ATOM      5  N   VAL A   1      16.729 -10.590  10.909  0.00  0.00    -0.239 NA
ATOM      6  H   VAL A   1      16.420 -11.436  11.429  0.00  0.00    +0.142 HD
ENDBRANCH   1   5
BRANCH   1   7
ATOM      7  C   VAL A   1      18.769 -10.309  12.279  0.00  0.00    +0.224 C 
ATOM      8  O   VAL A   1      18.736 -11.512  12.557  0.00  0.00    -0.287 OA
ENDBRANCH   1   7
TORSDOF 3
REMARK  Name = ../refined-set-2016/1k6c/1k6c_pocket.pdb
REMARK  240 active torsions:
REMARK  status: ('A' for Active; 'I' for Inactive)
REMARK    1  A    between atoms: _1  and  _3
REMARK    2  A    between atoms: _3  and  _4
REMARK    3  A    between atoms: _3  and  _6
REMARK    4  A    between atoms: _6  and  _7
REMARK    5  A    between atoms: _7  and  _8
REMARK    6  A    between atoms: _8  and  _9
REMARK    7  A    between atoms: _18  and  _20
REMARK    8  A    between atoms: _20  and  _21
REMARK    9  A    between atoms: _20  and  _23
REMARK   10  A    between atoms: _23  and  _24
REMARK   11  A    between atoms: _27  and  _29
REMARK   12  A    between atoms: _29  and  _30
REMARK   13  A    between atoms: _29  and  _32
REMARK   14  A    between atoms: _32  and  _33
REMARK   15  A    between atoms: _36  and  _38
REMARK   16  A    between atoms: _38  and  _39
REMARK   17  A    between atoms: _38  and  _41
REMARK   18  A    between atoms: _41  and  _42
REMARK   19  A    between atoms: _45  and  _47
REMARK   20  A    between atoms: _47  and  _48
REMARK   21  A    between atoms: _47  and  _50
REMARK   22  A    between atoms: _50  and  _51
REMARK   23  A    between atoms: _54  and  _56
REMARK   24  A    between atoms: _56  and  _57
REMARK   25  A    between atoms: _56  and  _59
REMARK   26  A    between atoms: _59  and  _60
REMARK   27  A    between atoms: _63  and  _65
REMARK   28  A    between atoms: _65  and  _66
REMARK   29  A    between atoms: _68  and  _70
REMARK   30  A    between atoms: _70  and  _71
REMARK   31  A    between atoms: _74  and  _76
REMARK   32  A    between atoms: _76  and  _77
REMARK   33  A    between atoms: _76  and  _79
REMARK   34  A    between atoms: _79  and  _80
REMARK   35  A    between atoms: _83  and  _85
REMARK   36  A    between atoms: _85  and  _86
REMARK   37  A    between atoms: _85  and  _88
REMARK   38  A    between atoms: _88  and  _89
REMARK   39  A    between atoms: _92  and  _94
REMARK   40  A    between atoms: _94  and  _95
REMARK   41  A    between atoms: _94  and  _97
REMARK   42  A    between atoms: _97  and  _98
REMARK   43  A    between atoms: _101  and  _103
REMARK   44  A    between atoms: _103  and  _104
REMARK   45  A    between atoms: _103  and  _106
REMARK   46  A    between atoms: _109  and  _111
REMARK   47  A    between atoms: _111  and  _112
REMARK   48  A    between atoms: _111  and  _114
REMARK   49  A    between atoms: _114  and  _115
REMARK   50  A    between atoms: _118  and  _120
REMARK   51  A    between atoms: _120  and  _121
REMARK   52  A    between atoms: _120  and  _123
REMARK   53  A    between atoms: _123  and  _124
REMARK   54  A    between atoms: _124  and  _125
REMARK   55  A    between atoms: _125  and  _126
REMARK   56  A    between atoms: _126  and  _127
REMARK   57  A    between atoms: _131  and  _133
REMARK   58  A    between atoms: _133  and  _134
REMARK   59  A    between atoms: _133  and  _136
REMARK   60  A    between atoms: _136  and  _137
REMARK   61  A    between atoms: _137  and  _138
REMARK   62  A    between atoms: _140  and  _142
REMARK   63  A    between atoms: _142  and  _143
REMARK   64  A    between atoms: _142  and  _145
REMARK   65  A    between atoms: _145  and  _146
REMARK   66  A    between atoms: _149  and  _151
REMARK   67  A    between atoms: _151  and  _152
REMARK   68  A    between atoms: _154  and  _156
REMARK   69  A    between atoms: _156  and  _157
REMARK   70  A    between atoms: _159  and  _161
REMARK   71  A    between atoms: _161  and  _162
REMARK   72  A    between atoms: _161  and  _164
REMARK   73  A    between atoms: _164  and  _165
REMARK   74  A    between atoms: _168  and  _170
REMARK   75  A    between atoms: _170  and  _171
REMARK   76  A    between atoms: _173  and  _175
REMARK   77  A    between atoms: _175  and  _176
REMARK   78  A    between atoms: _178  and  _180
REMARK   79  A    between atoms: _180  and  _181
REMARK   80  A    between atoms: _180  and  _183
REMARK   81  A    between atoms: _183  and  _184
REMARK   82  A    between atoms: _190  and  _192
REMARK   83  A    between atoms: _192  and  _193
REMARK   84  A    between atoms: _192  and  _195
REMARK   85  A    between atoms: _195  and  _196
REMARK   86  A    between atoms: _199  and  _201
REMARK   87  A    between atoms: _201  and  _202
REMARK   88  A    between atoms: _201  and  _204
REMARK   89  A    between atoms: _207  and  _209
REMARK   90  A    between atoms: _209  and  _210
REMARK   91  A    between atoms: _209  and  _212
REMARK   92  A    between atoms: _212  and  _213
REMARK   93  A    between atoms: _216  and  _218
REMARK   94  A    between atoms: _218  and  _219
REMARK   95  A    between atoms: _218  and  _221
REMARK   96  A    between atoms: _221  and  _222
REMARK   97  A    between atoms: _226  and  _227
REMARK   98  A    between atoms: _232  and  _234
REMARK   99  A    between atoms: _234  and  _235
REMARK  100  A    between atoms: _234  and  _237
REMARK  101  A    between atoms: _237  and  _238
REMARK  102  A    between atoms: _241  and  _243
REMARK  103  A    between atoms: _243  and  _244
REMARK  104  A    between atoms: _243  and  _246
REMARK  105  A    between atoms: _246  and  _247
REMARK  106  A    between atoms: _252  and  _254
REMARK  107  A    between atoms: _254  and  _255
REMARK  108  A    between atoms: _254  and  _257
REMARK  109  A    between atoms: _260  and  _262
REMARK  110  A    between atoms: _262  and  _263
REMARK  111  A    between atoms: _262  and  _265
REMARK  112  A    between atoms: _265  and  _266
REMARK  113  A    between atoms: _269  and  _271
REMARK  114  A    between atoms: _271  and  _272
REMARK  115  A    between atoms: _274  and  _276
REMARK  116  A    between atoms: _276  and  _277
REMARK  117  A    between atoms: _276  and  _279
REMARK  118  A    between atoms: _279  and  _280
REMARK  119  A    between atoms: _280  and  _281
REMARK  120  A    between atoms: _281  and  _282
REMARK  121  A    between atoms: _291  and  _293
REMARK  122  A    between atoms: _293  and  _294
REMARK  123  A    between atoms: _293  and  _296
REMARK  124  A    between atoms: _296  and  _297
REMARK  125  A    between atoms: _297  and  _298
REMARK  126  A    between atoms: _298  and  _299
REMARK  127  A    between atoms: _308  and  _310
REMARK  128  A    between atoms: _310  and  _311
REMARK  129  A    between atoms: _310  and  _313
REMARK  130  A    between atoms: _313  and  _314
REMARK  131  A    between atoms: _317  and  _319
REMARK  132  A    between atoms: _319  and  _320
REMARK  133  A    between atoms: _319  and  _322
REMARK  134  A    between atoms: _322  and  _323
REMARK  135  A    between atoms: _326  and  _328
REMARK  136  A    between atoms: _328  and  _329
REMARK  137  A    between atoms: _328  and  _331
REMARK  138  A    between atoms: _331  and  _332
REMARK  139  A    between atoms: _335  and  _337
REMARK  140  A    between atoms: _337  and  _338
REMARK  141  A    between atoms: _337  and  _340
REMARK  142  A    between atoms: _340  and  _341
REMARK  143  A    between atoms: _344  and  _346
REMARK  144  A    between atoms: _346  and  _347
REMARK  145  A    between atoms: _349  and  _351
REMARK  146  A    between atoms: _351  and  _352
REMARK  147  A    between atoms: _355  and  _357
REMARK  148  A    between atoms: _357  and  _358
REMARK  149  A    between atoms: _357  and  _360
REMARK  150  A    between atoms: _360  and  _361
REMARK  151  A    between atoms: _364  and  _366
REMARK  152  A    between atoms: _366  and  _367
REMARK  153  A    between atoms: _366  and  _369
REMARK  154  A    between atoms: _369  and  _370
REMARK  155  A    between atoms: _373  and  _375
REMARK  156  A    between atoms: _375  and  _376
REMARK  157  A    between atoms: _375  and  _378
REMARK  158  A    between atoms: _378  and  _379
REMARK  159  A    between atoms: _382  and  _384
REMARK  160  A    between atoms: _384  and  _385
REMARK  161  A    between atoms: _384  and  _387
REMARK  162  A    between atoms: _390  and  _392
REMARK  163  A    between atoms: _392  and  _393
REMARK  164  A    between atoms: _392  and  _395
REMARK  165  A    between atoms: _395  and  _396
REMARK  166  A    between atoms: _399  and  _401
REMARK  167  A    between atoms: _401  and  _402
REMARK  168  A    between atoms: _401  and  _404
REMARK  169  A    between atoms: _404  and  _405
REMARK  170  A    between atoms: _405  and  _406
REMARK  171  A    between atoms: _406  and  _407
REMARK  172  A    between atoms: _407  and  _408
REMARK  173  A    between atoms: _412  and  _414
REMARK  174  A    between atoms: _414  and  _415
REMARK  175  A    between atoms: _414  and  _417
REMARK  176  A    between atoms: _417  and  _418
REMARK  177  A    between atoms: _418  and  _419
REMARK  178  A    between atoms: _421  and  _423
REMARK  179  A    between atoms: _423  and  _424
REMARK  180  A    between atoms: _423  and  _426
REMARK  181  A    between atoms: _426  and  _427
REMARK  182  A    between atoms: _430  and  _432
REMARK  183  A    between atoms: _432  and  _433
REMARK  184  A    between atoms: _435  and  _437
REMARK  185  A    between atoms: _437  and  _438
REMARK  186  A    between atoms: _440  and  _442
REMARK  187  A    between atoms: _442  and  _443
REMARK  188  A    between atoms: _442  and  _445
REMARK  189  A    between atoms: _445  and  _446
REMARK  190  A    between atoms: _449  and  _451
REMARK  191  A    between atoms: _451  and  _452
REMARK  192  A    between atoms: _454  and  _456
REMARK  193  A    between atoms: _456  and  _457
REMARK  194  A    between atoms: _459  and  _461
REMARK  195  A    between atoms: _461  and  _462
REMARK  196  A    between atoms: _461  and  _464
REMARK  197  A    between atoms: _464  and  _465
REMARK  198  A    between atoms: _471  and  _473
REMARK  199  A    between atoms: _473  and  _474
REMARK  200  A    between atoms: _473  and  _476
REMARK  201  A    between atoms: _476  and  _477
REMARK  202  A    between atoms: _480  and  _482
REMARK  203  A    between atoms: _482  and  _483
REMARK  204  A    between atoms: _482  and  _485
REMARK  205  A    between atoms: _488  and  _490
REMARK  206  A    between atoms: _490  and  _491
REMARK  207  A    between atoms: _490  and  _493
REMARK  208  A    between atoms: _493  and  _494
REMARK  209  A    between atoms: _497  and  _499
REMARK  210  A    between atoms: _499  and  _500
REMARK  211  A    between atoms: _499  and  _502
REMARK  212  A    between atoms: _502  and  _503
REMARK  213  A    between atoms: _507  and  _508
REMARK  214  A    between atoms: _513  and  _515
REMARK  215  A    between atoms: _515  and  _516
REMARK  216  A    between atoms: _515  and  _518
REMARK  217  A    between atoms: _518  and  _519
REMARK  218  A    between atoms: _522  and  _524
REMARK  219  A    between atoms: _524  and  _525
REMARK  220  A    between atoms: _524  and  _527
REMARK  221  A    between atoms: _527  and  _528
REMARK  222  A    between atoms: _533  and  _535
REMARK  223  A    between atoms: _535  and  _536
REMARK  224  A    between atoms: _535  and  _538
REMARK  225  A    between atoms: _541  and  _543
REMARK  226  A    between atoms: _543  and  _544
REMARK  227  A    between atoms: _543  and  _546
REMARK  228  A    between atoms: _546  and  _547
REMARK  229  A    between atoms: _550  and  _552
REMARK  230  A    between atoms: _552  and  _553
REMARK  231  A    between atoms: _555  and  _557
REMARK  232  A    between atoms: _557  and  _558
REMARK  233  A    between atoms: _557  and  _560
REMARK  234  A    between atoms: _560  and  _561
REMARK  235  A    between atoms: _561  and  _562
REMARK  236  A    between atoms: _562  and  _563
REMARK  237  A    between atoms: _572  and  _574
REMARK  238  A    between atoms: _574  and  _575
REMARK  239  A    between atoms: _574  and  _577
REMARK  240  A    between atoms: _577  and  _578
REMARK                            x       y       z     vdW  Elec       q    Type
REMARK                         _______ _______ _______ _____ _____    ______ ____
ROOT
ATOM      1  CA  LEU A   1      18.491  -6.296  16.280  0.00  0.00    +0.133 C 
ENDROOT
BRANCH   1   2
ATOM      2  N   LEU A   1      18.654  -5.489  17.478  0.00  0.00    -0.239 NA
ATOM      3  H   LEU A   1      17.884  -4.850  17.761  0.00  0.00    +0.142 HD
ENDBRANCH   1   2
BRANCH   1   4
ATOM      4  C   LEU A   1      18.847  -5.407  15.096  0.00  0.00    +0.224 C 
ATOM      5  O   LEU A   1      18.444  -4.241  15.042  0.00  0.00    -0.287 OA
ENDBRANCH   1   4
BRANCH   1   6
ATOM      6  CB  LEU A   1      17.035  -6.780  16.157  0.00  0.00    +0.025 C 
BRANCH   6   7
ATOM      7  CG  LEU A   1      16.440  -7.443  17.410  0.00  0.00    +0.002 C 
ATOM      8  CD2 LEU A   1      17.280  -8.643  17.797  0.00  0.00    +0.000 C 
ATOM      9  CD1 LEU A   1      15.000  -7.853  17.157  0.00  0.00    +0.000 C 
ENDBRANCH   6   7
ENDBRANCH   1   6
TORSDOF 4
REMARK  Name = ../refined-set-2016/1k6c/1k6c_pocket.pdb
REMARK  240 active torsions:
REMARK  status: ('A' for Active; 'I' for Inactive)
REMARK    1  A    between atoms: _1  and  _3
REMARK    2  A    between atoms: _3  and  _4
REMARK    3  A    between atoms: _3  and  _6
REMARK    4  A    between atoms: _6  and  _7
REMARK    5  A    between atoms: _7  and  _8
REMARK    6  A    between atoms: _8  and  _9
REMARK    7  A    between atoms: _18  and  _20
REMARK    8  A    between atoms: _20  and  _21
REMARK    9  A    between atoms: _20  and  _23
REMARK   10  A    between atoms: _23  and  _24
REMARK   11  A    between atoms: _27  and  _29
REMARK   12  A    between atoms: _29  and  _30
REMARK   13  A    between atoms: _29  and  _32
REMARK   14  A    between atoms: _32  and  _33
REMARK   15  A    between atoms: _36  and  _38
REMARK   16  A    between atoms: _38  and  _39
REMARK   17  A    between atoms: _38  and  _41
REMARK   18  A    between atoms: _41  and  _42
REMARK   19  A    between atoms: _45  and  _47
REMARK   20  A    between atoms: _47  and  _48
REMARK   21  A    between atoms: _47  and  _50
REMARK   22  A    between atoms: _50  and  _51
REMARK   23  A    between atoms: _54  and  _56
REMARK   24  A    between atoms: _56  and  _57
REMARK   25  A    between atoms: _56  and  _59
REMARK   26  A    between atoms: _59  and  _60
REMARK   27  A    between atoms: _63  and  _65
REMARK   28  A    between atoms: _65  and  _66
REMARK   29  A    between atoms: _68  and  _70
REMARK   30  A    between atoms: _70  and  _71
REMARK   31  A    between atoms: _74  and  _76
REMARK   32  A    between atoms: _76  and  _77
REMARK   33  A    between atoms: _76  and  _79
REMARK   34  A    between atoms: _79  and  _80
REMARK   35  A    between atoms: _83  and  _85
REMARK   36  A    between atoms: _85  and  _86
REMARK   37  A    between atoms: _85  and  _88
REMARK   38  A    between atoms: _88  and  _89
REMARK   39  A    between atoms: _92  and  _94
REMARK   40  A    between atoms: _94  and  _95
REMARK   41  A    between atoms: _94  and  _97
REMARK   42  A    between atoms: _97  and  _98
REMARK   43  A    between atoms: _101  and  _103
REMARK   44  A    between atoms: _103  and  _104
REMARK   45  A    between atoms: _103  and  _106
REMARK   46  A    between atoms: _109  and  _111
REMARK   47  A    between atoms: _111  and  _112
REMARK   48  A    between atoms: _111  and  _114
REMARK   49  A    between atoms: _114  and  _115
REMARK   50  A    between atoms: _118  and  _120
REMARK   51  A    between atoms: _120  and  _121
REMARK   52  A    between atoms: _120  and  _123
REMARK   53  A    between atoms: _123  and  _124
REMARK   54  A    between atoms: _124  and  _125
REMARK   55  A    between atoms: _125  and  _126
REMARK   56  A    between atoms: _126  and  _127
REMARK   57  A    between atoms: _131  and  _133
REMARK   58  A    between atoms: _133  and  _134
REMARK   59  A    between atoms: _133  and  _136
REMARK   60  A    between atoms: _136  and  _137
REMARK   61  A    between atoms: _137  and  _138
REMARK   62  A    between atoms: _140  and  _142
REMARK   63  A    between atoms: _142  and  _143
REMARK   64  A    between atoms: _142  and  _145
REMARK   65  A    between atoms: _145  and  _146
REMARK   66  A    between atoms: _149  and  _151
REMARK   67  A    between atoms: _151  and  _152
REMARK   68  A    between atoms: _154  and  _156
REMARK   69  A    between atoms: _156  and  _157
REMARK   70  A    between atoms: _159  and  _161
REMARK   71  A    between atoms: _161  and  _162
REMARK   72  A    between atoms: _161  and  _164
REMARK   73  A    between atoms: _164  and  _165
REMARK   74  A    between atoms: _168  and  _170
REMARK   75  A    between atoms: _170  and  _171
REMARK   76  A    between atoms: _173  and  _175
REMARK   77  A    between atoms: _175  and  _176
REMARK   78  A    between atoms: _178  and  _180
REMARK   79  A    between atoms: _180  and  _181
REMARK   80  A    between atoms: _180  and  _183
REMARK   81  A    between atoms: _183  and  _184
REMARK   82  A    between atoms: _190  and  _192
REMARK   83  A    between atoms: _192  and  _193
REMARK   84  A    between atoms: _192  and  _195
REMARK   85  A    between atoms: _195  and  _196
REMARK   86  A    between atoms: _199  and  _201
REMARK   87  A    between atoms: _201  and  _202
REMARK   88  A    between atoms: _201  and  _204
REMARK   89  A    between atoms: _207  and  _209
REMARK   90  A    between atoms: _209  and  _210
REMARK   91  A    between atoms: _209  and  _212
REMARK   92  A    between atoms: _212  and  _213
REMARK   93  A    between atoms: _216  and  _218
REMARK   94  A    between atoms: _218  and  _219
REMARK   95  A    between atoms: _218  and  _221
REMARK   96  A    between atoms: _221  and  _222
REMARK   97  A    between atoms: _226  and  _227
REMARK   98  A    between atoms: _232  and  _234
REMARK   99  A    between atoms: _234  and  _235
REMARK  100  A    between atoms: _234  and  _237
REMARK  101  A    between atoms: _237  and  _238
REMARK  102  A    between atoms: _241  and  _243
REMARK  103  A    between atoms: _243  and  _244
REMARK  104  A    between atoms: _243  and  _246
REMARK  105  A    between atoms: _246  and  _247
REMARK  106  A    between atoms: _252  and  _254
REMARK  107  A    between atoms: _254  and  _255
REMARK  108  A    between atoms: _254  and  _257
REMARK  109  A    between atoms: _260  and  _262
REMARK  110  A    between atoms: _262  and  _263
REMARK  111  A    between atoms: _262  and  _265
REMARK  112  A    between atoms: _265  and  _266
REMARK  113  A    between atoms: _269  and  _271
REMARK  114  A    between atoms: _271  and  _272
REMARK  115  A    between atoms: _274  and  _276
REMARK  116  A    between atoms: _276  and  _277
REMARK  117  A    between atoms: _276  and  _279
REMARK  118  A    between atoms: _279  and  _280
REMARK  119  A    between atoms: _280  and  _281
REMARK  120  A    between atoms: _281  and  _282
REMARK  121  A    between atoms: _291  and  _293
REMARK  122  A    between atoms: _293  and  _294
REMARK  123  A    between atoms: _293  and  _296
REMARK  124  A    between atoms: _296  and  _297
REMARK  125  A    between atoms: _297  and  _298
REMARK  126  A    between atoms: _298  and  _299
REMARK  127  A    between atoms: _308  and  _310
REMARK  128  A    between atoms: _310  and  _311
REMARK  129  A    between atoms: _310  and  _313
REMARK  130  A    between atoms: _313  and  _314
REMARK  131  A    between atoms: _317  and  _319
REMARK  132  A    between atoms: _319  and  _320
REMARK  133  A    between atoms: _319  and  _322
REMARK  134  A    between atoms: _322  and  _323
REMARK  135  A    between atoms: _326  and  _328
REMARK  136  A    between atoms: _328  and  _329
REMARK  137  A    between atoms: _328  and  _331
REMARK  138  A    between atoms: _331  and  _332
REMARK  139  A    between atoms: _335  and  _337
REMARK  140  A    between atoms: _337  and  _338
REMARK  141  A    between atoms: _337  and  _340
REMARK  142  A    between atoms: _340  and  _341
REMARK  143  A    between atoms: _344  and  _346
REMARK  144  A    between atoms: _346  and  _347
REMARK  145  A    between atoms: _349  and  _351
REMARK  146  A    between atoms: _351  and  _352
REMARK  147  A    between atoms: _355  and  _357
REMARK  148  A    between atoms: _357  and  _358
REMARK  149  A    between atoms: _357  and  _360
REMARK  150  A    between atoms: _360  and  _361
REMARK  151  A    between atoms: _364  and  _366
REMARK  152  A    between atoms: _366  and  _367
REMARK  153  A    between atoms: _366  and  _369
REMARK  154  A    between atoms: _369  and  _370
REMARK  155  A    between atoms: _373  and  _375
REMARK  156  A    between atoms: _375  and  _376
REMARK  157  A    between atoms: _375  and  _378
REMARK  158  A    between atoms: _378  and  _379
REMARK  159  A    between atoms: _382  and  _384
REMARK  160  A    between atoms: _384  and  _385
REMARK  161  A    between atoms: _384  and  _387
REMARK  162  A    between atoms: _390  and  _392
REMARK  163  A    between atoms: _392  and  _393
REMARK  164  A    between atoms: _392  and  _395
REMARK  165  A    between atoms: _395  and  _396
REMARK  166  A    between atoms: _399  and  _401
REMARK  167  A    between atoms: _401  and  _402
REMARK  168  A    between atoms: _401  and  _404
REMARK  169  A    between atoms: _404  and  _405
REMARK  170  A    between atoms: _405  and  _406
REMARK  171  A    between atoms: _406  and  _407
REMARK  172  A    between atoms: _407  and  _408
REMARK  173  A    between atoms: _412  and  _414
REMARK  174  A    between atoms: _414  and  _415
REMARK  175  A    between atoms: _414  and  _417
REMARK  176  A    between atoms: _417  and  _418
REMARK  177  A    between atoms: _418  and  _419
REMARK  178  A    between atoms: _421  and  _423
REMARK  179  A    between atoms: _423  and  _424
REMARK  180  A    between atoms: _423  and  _426
REMARK  181  A    between atoms: _426  and  _427
REMARK  182  A    between atoms: _430  and  _432
REMARK  183  A    between atoms: _432  and  _433
REMARK  184  A    between atoms: _435  and  _437
REMARK  185  A    between atoms: _437  and  _438
REMARK  186  A    between atoms: _440  and  _442
REMARK  187  A    between atoms: _442  and  _443
REMARK  188  A    between atoms: _442  and  _445
REMARK  189  A    between atoms: _445  and  _446
REMARK  190  A    between atoms: _449  and  _451
REMARK  191  A    between atoms: _451  and  _452
REMARK  192  A    between atoms: _454  and  _456
REMARK  193  A    between atoms: _456  and  _457
REMARK  194  A    between atoms: _459  and  _461
REMARK  195  A    between atoms: _461  and  _462
REMARK  196  A    between atoms: _461  and  _464
REMARK  197  A    between atoms: _464  and  _465
REMARK  198  A    between atoms: _471  and  _473
REMARK  199  A    between atoms: _473  and  _474
REMARK  200  A    between atoms: _473  and  _476
REMARK  201  A    between atoms: _476  and  _477
REMARK  202  A    between atoms: _480  and  _482
REMARK  203  A    between atoms: _482  and  _483
REMARK  204  A    between atoms: _482  and  _485
REMARK  205  A    between atoms: _488  and  _490
REMARK  206  A    between atoms: _490  and  _491
REMARK  207  A    between atoms: _490  and  _493
REMARK  208  A    between atoms: _493  and  _494
REMARK  209  A    between atoms: _497  and  _499
REMARK  210  A    between atoms: _499  and  _500
REMARK  211  A    between atoms: _499  and  _502
REMARK  212  A    between atoms: _502  and  _503
REMARK  213  A    between atoms: _507  and  _508
REMARK  214  A    between atoms: _513  and  _515
REMARK  215  A    between atoms: _515  and  _516
REMARK  216  A    between atoms: _515  and  _518
REMARK  217  A    between atoms: _518  and  _519
REMARK  218  A    between atoms: _522  and  _524
REMARK  219  A    between atoms: _524  and  _525
REMARK  220  A    between atoms: _524  and  _527
REMARK  221  A    between atoms: _527  and  _528
REMARK  222  A    between atoms: _533  and  _535
REMARK  223  A    between atoms: _535  and  _536
REMARK  224  A    between atoms: _535  and  _538
REMARK  225  A    between atoms: _541  and  _543
REMARK  226  A    between atoms: _543  and  _544
REMARK  227  A    between atoms: _543  and  _546
REMARK  228  A    between atoms: _546  and  _547
REMARK  229  A    between atoms: _550  and  _552
REMARK  230  A    between atoms: _552  and  _553
REMARK  231  A    between atoms: _555  and  _557
REMARK  232  A    between atoms: _557  and  _558
REMARK  233  A    between atoms: _557  and  _560
REMARK  234  A    between atoms: _560  and  _561
REMARK  235  A    between atoms: _561  and  _562
REMARK  236  A    between atoms: _562  and  _563
REMARK  237  A    between atoms: _572  and  _574
REMARK  238  A    between atoms: _574  and  _575
REMARK  239  A    between atoms: _574  and  _577
REMARK  240  A    between atoms: _577  and  _578
REMARK                            x       y       z     vdW  Elec       q    Type
REMARK                         _______ _______ _______ _____ _____    ______ ____
ROOT
ATOM      1  C   ASN A   4      14.464   2.974  14.746  0.00  0.00    +0.241 C 
ATOM      2  N   VAL A   5      14.278   1.848  15.420  0.00  0.00    -0.297 N 
ATOM      3  H   VAL A   5      14.884   1.027  15.217  0.00  0.00    +0.150 HD
ATOM      4  O   ASN A   4      13.798   3.995  14.953  0.00  0.00    -0.273 OA
ENDROOT
BRANCH   2   5
ATOM      5  CA  VAL A   5      13.246   1.736  16.436  0.00  0.00    +0.149 C 
BRANCH   5   6
ATOM      6  C   VAL A   5      13.780   1.385  17.819  0.00  0.00    +0.241 C 
ATOM      7  N   ILE A   6      13.510   2.249  18.798  0.00  0.00    -0.297 N 
ATOM      8  H   ILE A   6      12.986   3.122  18.584  0.00  0.00    +0.150 HD
ATOM      9  O   VAL A   5      14.428   0.352  17.997  0.00  0.00    -0.273 OA
BRANCH   7  10
ATOM     10  CA  ILE A   6      13.940   1.985  20.164  0.00  0.00    +0.149 C 
BRANCH  10  11
ATOM     11  C   ILE A   6      12.736   1.349  20.848  0.00  0.00    +0.241 C 
ATOM     12  N   GLY A   7      12.882   0.084  21.245  0.00  0.00    -0.295 N 
ATOM     13  H   GLY A   7      13.792  -0.396  21.093  0.00  0.00    +0.150 HD
ATOM     14  O   ILE A   6      11.689   1.986  20.990  0.00  0.00    -0.273 OA
BRANCH  12  15
ATOM     15  CA  GLY A   7      11.792  -0.640  21.887  0.00  0.00    +0.176 C 
BRANCH  15  16
ATOM     16  C   GLY A   7      11.764  -0.612  23.405  0.00  0.00    +0.243 C 
ATOM     17  O   GLY A   7      12.606   0.020  24.036  0.00  0.00    -0.273 OA
ATOM     18  N   ARG A   8      10.802  -1.324  23.990  0.00  0.00    -0.298 N 
ATOM     19  H   ARG A   8      10.143  -1.867  23.397  0.00  0.00    +0.150 HD
BRANCH  18  20
ATOM     20  CA  ARG A   8      10.648  -1.363  25.442  0.00  0.00    +0.137 C 
BRANCH  20  21
ATOM     21  C   ARG A   8      11.878  -1.871  26.177  0.00  0.00    +0.227 C 
ATOM     22  O   ARG A   8      12.182  -1.400  27.274  0.00  0.00    -0.286 OA
ENDBRANCH  20  21
BRANCH  20  23
ATOM     23  CB  ARG A   8       9.414  -2.196  25.842  0.00  0.00    +0.031 C 
BRANCH  23  24
ATOM     24  CG  ARG A   8       8.094  -1.523  25.469  0.00  0.00    +0.045 C 
BRANCH  24  25
ATOM     25  CD  ARG A   8       6.870  -2.226  26.043  0.00  0.00    +0.174 C 
BRANCH  25  26
ATOM     26  NE  ARG A   8       6.785  -3.617  25.606  0.00  0.00    -0.265 N 
ATOM     27  CZ  ARG A   8       7.261  -4.660  26.287  0.00  0.00    +0.342 C 
ATOM     28  NH2 ARG A   8       7.854  -4.483  27.463  0.00  0.00    -0.292 N 
ATOM     29 HH21 ARG A   8       8.223  -5.302  27.988  0.00  0.00    +0.255 HD
ATOM     30 HH22 ARG A   8       7.949  -3.526  27.858  0.00  0.00    +0.255 HD
ATOM     31  NH1 ARG A   8       7.173  -5.884  25.772  0.00  0.00    -0.292 N 
ATOM     32 HH11 ARG A   8       7.544  -6.699  26.301  0.00  0.00    +0.255 HD
ATOM     33 HH12 ARG A   8       6.734  -6.026  24.840  0.00  0.00    +0.255 HD
ATOM     34  HE  ARG A   8       6.319  -3.808  24.696  0.00  0.00    +0.259 HD
ENDBRANCH  25  26
ENDBRANCH  24  25
ENDBRANCH  23  24
ENDBRANCH  20  23
ENDBRANCH  18  20
ENDBRANCH  15  16
ENDBRANCH  12  15
ENDBRANCH  10  11
BRANCH  10  35
ATOM     35  CB  ILE A   6      14.342   3.282  20.904  0.00  0.00    +0.027 C 
ATOM     36  CG2 ILE A   6      14.822   2.954  22.320  0.00  0.00    +0.002 C 
BRANCH  35  37
ATOM     37  CG1 ILE A   6      15.446   4.003  20.131  0.00  0.00    +0.002 C 
ATOM     38  CD1 ILE A   6      16.715   3.185  19.926  0.00  0.00    +0.000 C 
ENDBRANCH  35  37
ENDBRANCH  10  35
ENDBRANCH   7  10
ENDBRANCH   5   6
BRANCH   5  39
ATOM     39  CB  VAL A   5      12.206   0.666  16.031  0.00  0.00    +0.027 C 
ATOM     40  CG2 VAL A   5      11.148   0.530  17.102  0.00  0.00    +0.002 C 
ATOM     41  CG1 VAL A   5      11.563   1.045  14.700  0.00  0.00    +0.002 C 
ENDBRANCH   5  39
ENDBRANCH   2   5
BRANCH   1  42
ATOM     42  CA  ASN A   4      15.566   2.948  13.681  0.00  0.00    +0.158 C 
BRANCH  42  44
ATOM     43  C   THR A   3      14.183   2.718  11.707  0.00  0.00    +0.243 C 
ATOM     44  N   ASN A   4      15.000   3.464  12.447  0.00  0.00    -0.297 N 
ATOM     45  H   ASN A   4      15.236   4.428  12.138  0.00  0.00    +0.150 HD
ATOM     46  O   THR A   3      13.892   1.551  11.986  0.00  0.00    -0.273 OA
BRANCH  43  47
ATOM     47  CA  THR A   3      13.627   3.381  10.459  0.00  0.00    +0.176 C 
BRANCH  47  49
ATOM     48  C   PRO A   2      13.394   2.683   8.150  0.00  0.00    +0.241 C 
ATOM     49  N   THR A   3      13.216   2.424   9.443  0.00  0.00    -0.295 N 
ATOM     50  H   THR A   3      12.777   1.526   9.731  0.00  0.00    +0.150 HD
ATOM     51  O   PRO A   2      13.924   3.715   7.759  0.00  0.00    -0.273 OA
BRANCH  48  58
ATOM     52  C   THR A   1      14.170  -0.276   8.065  0.00  0.00    +0.244 C 
ATOM     53  O   THR A   1      15.230   0.338   7.929  0.00  0.00    -0.273 OA
ATOM     54  N   PRO A   2      12.990   0.256   7.702  0.00  0.00    -0.272 N 
ATOM     55  CD  PRO A   2      11.660  -0.379   7.663  0.00  0.00    +0.094 C 
ATOM     56  CG  PRO A   2      10.739   0.825   7.608  0.00  0.00    +0.024 C 
ATOM     57  CB  PRO A   2      11.489   1.749   6.684  0.00  0.00    +0.031 C 
ATOM     58  CA  PRO A   2      12.946   1.611   7.143  0.00  0.00    +0.152 C 
BRANCH  52  59
ATOM     59  CA  THR A   1      14.154  -1.686   8.642  0.00  0.00    +0.172 C 
BRANCH  59  60
ATOM     60  N   THR A   1      15.319  -2.396   8.130  0.00  0.00    -0.236 NA
ATOM     61  H   THR A   1      16.257  -2.188   8.528  0.00  0.00    +0.142 HD
ENDBRANCH  59  60
BRANCH  59  62
ATOM     62  CB  THR A   1      14.171  -1.586  10.185  0.00  0.00    +0.135 C 
ATOM     63  CG2 THR A   1      15.489  -0.958  10.657  0.00  0.00    +0.034 C 
BRANCH  62  64
ATOM     64  OG1 THR A   1      13.077  -0.760  10.624  0.00  0.00    -0.383 OA
ATOM     65  HG1 THR A   1      13.170   0.145  10.233  0.00  0.00    +0.210 HD
ENDBRANCH  62  64
ENDBRANCH  59  62
ENDBRANCH  52  59
ENDBRANCH  48  58
ENDBRANCH  47  49
BRANCH  47  66
ATOM     66  CB  THR A   3      12.460   4.300  10.881  0.00  0.00    +0.137 C 
ATOM     67  CG2 THR A   3      11.302   3.479  11.428  0.00  0.00    +0.034 C 
BRANCH  66  68
ATOM     68  OG1 THR A   3      12.920   5.203  11.897  0.00  0.00    -0.382 OA
ATOM     69  HG1 THR A   3      13.663   5.750  11.539  0.00  0.00    +0.210 HD
ENDBRANCH  66  68
ENDBRANCH  47  66
ENDBRANCH  43  47
ENDBRANCH  42  44
BRANCH  42  70
ATOM     70  CB  ASN A   4      16.758   3.801  14.124  0.00  0.00    +0.114 C 
BRANCH  70  71
ATOM     71  CG  ASN A   4      17.920   3.714  13.158  0.00  0.00    +0.222 C 
ATOM     72  OD1 ASN A   4      18.387   2.624  12.833  0.00  0.00    -0.275 OA
ATOM     73  ND2 ASN A   4      18.397   4.863  12.698  0.00  0.00    -0.329 N 
ATOM     74 HD21 ASN A   4      17.970   5.762  13.001  0.00  0.00    +0.145 HD
ATOM     75 HD22 ASN A   4      19.198   4.865  12.035  0.00  0.00    +0.145 HD
ENDBRANCH  70  71
ENDBRANCH  42  70
ENDBRANCH   1  42
TORSDOF 28
REMARK  Name = ../refined-set-2016/1k6c/1k6c_pocket.pdb
REMARK  240 active torsions:
REMARK  status: ('A' for Active; 'I' for Inactive)
REMARK    1  A    between atoms: _1  and  _3
REMARK    2  A    between atoms: _3  and  _4
REMARK    3  A    between atoms: _3  and  _6
REMARK    4  A    between atoms: _6  and  _7
REMARK    5  A    between atoms: _7  and  _8
REMARK    6  A    between atoms: _8  and  _9
REMARK    7  A    between atoms: _18  and  _20
REMARK    8  A    between atoms: _20  and  _21
REMARK    9  A    between atoms: _20  and  _23
REMARK   10  A    between atoms: _23  and  _24
REMARK   11  A    between atoms: _27  and  _29
REMARK   12  A    between atoms: _29  and  _30
REMARK   13  A    between atoms: _29  and  _32
REMARK   14  A    between atoms: _32  and  _33
REMARK   15  A    between atoms: _36  and  _38
REMARK   16  A    between atoms: _38  and  _39
REMARK   17  A    between atoms: _38  and  _41
REMARK   18  A    between atoms: _41  and  _42
REMARK   19  A    between atoms: _45  and  _47
REMARK   20  A    between atoms: _47  and  _48
REMARK   21  A    between atoms: _47  and  _50
REMARK   22  A    between atoms: _50  and  _51
REMARK   23  A    between atoms: _54  and  _56
REMARK   24  A    between atoms: _56  and  _57
REMARK   25  A    between atoms: _56  and  _59
REMARK   26  A    between atoms: _59  and  _60
REMARK   27  A    between atoms: _63  and  _65
REMARK   28  A    between atoms: _65  and  _66
REMARK   29  A    between atoms: _68  and  _70
REMARK   30  A    between atoms: _70  and  _71
REMARK   31  A    between atoms: _74  and  _76
REMARK   32  A    between atoms: _76  and  _77
REMARK   33  A    between atoms: _76  and  _79
REMARK   34  A    between atoms: _79  and  _80
REMARK   35  A    between atoms: _83  and  _85
REMARK   36  A    between atoms: _85  and  _86
REMARK   37  A    between atoms: _85  and  _88
REMARK   38  A    between atoms: _88  and  _89
REMARK   39  A    between atoms: _92  and  _94
REMARK   40  A    between atoms: _94  and  _95
REMARK   41  A    between atoms: _94  and  _97
REMARK   42  A    between atoms: _97  and  _98
REMARK   43  A    between atoms: _101  and  _103
REMARK   44  A    between atoms: _103  and  _104
REMARK   45  A    between atoms: _103  and  _106
REMARK   46  A    between atoms: _109  and  _111
REMARK   47  A    between atoms: _111  and  _112
REMARK   48  A    between atoms: _111  and  _114
REMARK   49  A    between atoms: _114  and  _115
REMARK   50  A    between atoms: _118  and  _120
REMARK   51  A    between atoms: _120  and  _121
REMARK   52  A    between atoms: _120  and  _123
REMARK   53  A    between atoms: _123  and  _124
REMARK   54  A    between atoms: _124  and  _125
REMARK   55  A    between atoms: _125  and  _126
REMARK   56  A    between atoms: _126  and  _127
REMARK   57  A    between atoms: _131  and  _133
REMARK   58  A    between atoms: _133  and  _134
REMARK   59  A    between atoms: _133  and  _136
REMARK   60  A    between atoms: _136  and  _137
REMARK   61  A    between atoms: _137  and  _138
REMARK   62  A    between atoms: _140  and  _142
REMARK   63  A    between atoms: _142  and  _143
REMARK   64  A    between atoms: _142  and  _145
REMARK   65  A    between atoms: _145  and  _146
REMARK   66  A    between atoms: _149  and  _151
REMARK   67  A    between atoms: _151  and  _152
REMARK   68  A    between atoms: _154  and  _156
REMARK   69  A    between atoms: _156  and  _157
REMARK   70  A    between atoms: _159  and  _161
REMARK   71  A    between atoms: _161  and  _162
REMARK   72  A    between atoms: _161  and  _164
REMARK   73  A    between atoms: _164  and  _165
REMARK   74  A    between atoms: _168  and  _170
REMARK   75  A    between atoms: _170  and  _171
REMARK   76  A    between atoms: _173  and  _175
REMARK   77  A    between atoms: _175  and  _176
REMARK   78  A    between atoms: _178  and  _180
REMARK   79  A    between atoms: _180  and  _181
REMARK   80  A    between atoms: _180  and  _183
REMARK   81  A    between atoms: _183  and  _184
REMARK   82  A    between atoms: _190  and  _192
REMARK   83  A    between atoms: _192  and  _193
REMARK   84  A    between atoms: _192  and  _195
REMARK   85  A    between atoms: _195  and  _196
REMARK   86  A    between atoms: _199  and  _201
REMARK   87  A    between atoms: _201  and  _202
REMARK   88  A    between atoms: _201  and  _204
REMARK   89  A    between atoms: _207  and  _209
REMARK   90  A    between atoms: _209  and  _210
REMARK   91  A    between atoms: _209  and  _212
REMARK   92  A    between atoms: _212  and  _213
REMARK   93  A    between atoms: _216  and  _218
REMARK   94  A    between atoms: _218  and  _219
REMARK   95  A    between atoms: _218  and  _221
REMARK   96  A    between atoms: _221  and  _222
REMARK   97  A    between atoms: _226  and  _227
REMARK   98  A    between atoms: _232  and  _234
REMARK   99  A    between atoms: _234  and  _235
REMARK  100  A    between atoms: _234  and  _237
REMARK  101  A    between atoms: _237  and  _238
REMARK  102  A    between atoms: _241  and  _243
REMARK  103  A    between atoms: _243  and  _244
REMARK  104  A    between atoms: _243  and  _246
REMARK  105  A    between atoms: _246  and  _247
REMARK  106  A    between atoms: _252  and  _254
REMARK  107  A    between atoms: _254  and  _255
REMARK  108  A    between atoms: _254  and  _257
REMARK  109  A    between atoms: _260  and  _262
REMARK  110  A    between atoms: _262  and  _263
REMARK  111  A    between atoms: _262  and  _265
REMARK  112  A    between atoms: _265  and  _266
REMARK  113  A    between atoms: _269  and  _271
REMARK  114  A    between atoms: _271  and  _272
REMARK  115  A    between atoms: _274  and  _276
REMARK  116  A    between atoms: _276  and  _277
REMARK  117  A    between atoms: _276  and  _279
REMARK  118  A    between atoms: _279  and  _280
REMARK  119  A    between atoms: _280  and  _281
REMARK  120  A    between atoms: _281  and  _282
REMARK  121  A    between atoms: _291  and  _293
REMARK  122  A    between atoms: _293  and  _294
REMARK  123  A    between atoms: _293  and  _296
REMARK  124  A    between atoms: _296  and  _297
REMARK  125  A    between atoms: _297  and  _298
REMARK  126  A    between atoms: _298  and  _299
REMARK  127  A    between atoms: _308  and  _310
REMARK  128  A    between atoms: _310  and  _311
REMARK  129  A    between atoms: _310  and  _313
REMARK  130  A    between atoms: _313  and  _314
REMARK  131  A    between atoms: _317  and  _319
REMARK  132  A    between atoms: _319  and  _320
REMARK  133  A    between atoms: _319  and  _322
REMARK  134  A    between atoms: _322  and  _323
REMARK  135  A    between atoms: _326  and  _328
REMARK  136  A    between atoms: _328  and  _329
REMARK  137  A    between atoms: _328  and  _331
REMARK  138  A    between atoms: _331  and  _332
REMARK  139  A    between atoms: _335  and  _337
REMARK  140  A    between atoms: _337  and  _338
REMARK  141  A    between atoms: _337  and  _340
REMARK  142  A    between atoms: _340  and  _341
REMARK  143  A    between atoms: _344  and  _346
REMARK  144  A    between atoms: _346  and  _347
REMARK  145  A    between atoms: _349  and  _351
REMARK  146  A    between atoms: _351  and  _352
REMARK  147  A    between atoms: _355  and  _357
REMARK  148  A    between atoms: _357  and  _358
REMARK  149  A    between atoms: _357  and  _360
REMARK  150  A    between atoms: _360  and  _361
REMARK  151  A    between atoms: _364  and  _366
REMARK  152  A    between atoms: _366  and  _367
REMARK  153  A    between atoms: _366  and  _369
REMARK  154  A    between atoms: _369  and  _370
REMARK  155  A    between atoms: _373  and  _375
REMARK  156  A    between atoms: _375  and  _376
REMARK  157  A    between atoms: _375  and  _378
REMARK  158  A    between atoms: _378  and  _379
REMARK  159  A    between atoms: _382  and  _384
REMARK  160  A    between atoms: _384  and  _385
REMARK  161  A    between atoms: _384  and  _387
REMARK  162  A    between atoms: _390  and  _392
REMARK  163  A    between atoms: _392  and  _393
REMARK  164  A    between atoms: _392  and  _395
REMARK  165  A    between atoms: _395  and  _396
REMARK  166  A    between atoms: _399  and  _401
REMARK  167  A    between atoms: _401  and  _402
REMARK  168  A    between atoms: _401  and  _404
REMARK  169  A    between atoms: _404  and  _405
REMARK  170  A    between atoms: _405  and  _406
REMARK  171  A    between atoms: _406  and  _407
REMARK  172  A    between atoms: _407  and  _408
REMARK  173  A    between atoms: _412  and  _414
REMARK  174  A    between atoms: _414  and  _415
REMARK  175  A    between atoms: _414  and  _417
REMARK  176  A    between atoms: _417  and  _418
REMARK  177  A    between atoms: _418  and  _419
REMARK  178  A    between atoms: _421  and  _423
REMARK  179  A    between atoms: _423  and  _424
REMARK  180  A    between atoms: _423  and  _426
REMARK  181  A    between atoms: _426  and  _427
REMARK  182  A    between atoms: _430  and  _432
REMARK  183  A    between atoms: _432  and  _433
REMARK  184  A    between atoms: _435  and  _437
REMARK  185  A    between atoms: _437  and  _438
REMARK  186  A    between atoms: _440  and  _442
REMARK  187  A    between atoms: _442  and  _443
REMARK  188  A    between atoms: _442  and  _445
REMARK  189  A    between atoms: _445  and  _446
REMARK  190  A    between atoms: _449  and  _451
REMARK  191  A    between atoms: _451  and  _452
REMARK  192  A    between atoms: _454  and  _456
REMARK  193  A    between atoms: _456  and  _457
REMARK  194  A    between atoms: _459  and  _461
REMARK  195  A    between atoms: _461  and  _462
REMARK  196  A    between atoms: _461  and  _464
REMARK  197  A    between atoms: _464  and  _465
REMARK  198  A    between atoms: _471  and  _473
REMARK  199  A    between atoms: _473  and  _474
REMARK  200  A    between atoms: _473  and  _476
REMARK  201  A    between atoms: _476  and  _477
REMARK  202  A    between atoms: _480  and  _482
REMARK  203  A    between atoms: _482  and  _483
REMARK  204  A    between atoms: _482  and  _485
REMARK  205  A    between atoms: _488  and  _490
REMARK  206  A    between atoms: _490  and  _491
REMARK  207  A    between atoms: _490  and  _493
REMARK  208  A    between atoms: _493  and  _494
REMARK  209  A    between atoms: _497  and  _499
REMARK  210  A    between atoms: _499  and  _500
REMARK  211  A    between atoms: _499  and  _502
REMARK  212  A    between atoms: _502  and  _503
REMARK  213  A    between atoms: _507  and  _508
REMARK  214  A    between atoms: _513  and  _515
REMARK  215  A    between atoms: _515  and  _516
REMARK  216  A    between atoms: _515  and  _518
REMARK  217  A    between atoms: _518  and  _519
REMARK  218  A    between atoms: _522  and  _524
REMARK  219  A    between atoms: _524  and  _525
REMARK  220  A    between atoms: _524  and  _527
REMARK  221  A    between atoms: _527  and  _528
REMARK  222  A    between atoms: _533  and  _535
REMARK  223  A    between atoms: _535  and  _536
REMARK  224  A    between atoms: _535  and  _538
REMARK  225  A    between atoms: _541  and  _543
REMARK  226  A    between atoms: _543  and  _544
REMARK  227  A    between atoms: _543  and  _546
REMARK  228  A    between atoms: _546  and  _547
REMARK  229  A    between atoms: _550  and  _552
REMARK  230  A    between atoms: _552  and  _553
REMARK  231  A    between atoms: _555  and  _557
REMARK  232  A    between atoms: _557  and  _558
REMARK  233  A    between atoms: _557  and  _560
REMARK  234  A    between atoms: _560  and  _561
REMARK  235  A    between atoms: _561  and  _562
REMARK  236  A    between atoms: _562  and  _563
REMARK  237  A    between atoms: _572  and  _574
REMARK  238  A    between atoms: _574  and  _575
REMARK  239  A    between atoms: _574  and  _577
REMARK  240  A    between atoms: _577  and  _578
REMARK                            x       y       z     vdW  Elec       q    Type
REMARK                         _______ _______ _______ _____ _____    ______ ____
ROOT
ATOM      1  NE  ARG A   1       3.865  -7.456  23.033  0.00  0.00    -0.265 N 
ATOM      2  HE  ARG A   1       4.886  -7.279  23.124  0.00  0.00    +0.259 HD
ATOM      3  CZ  ARG A   1       3.442  -8.148  21.980  0.00  0.00    +0.342 C 
ATOM      4  NH2 ARG A   1       2.147  -8.393  21.831  0.00  0.00    -0.292 N 
ATOM      5 HH21 ARG A   1       1.467  -8.044  22.537  0.00  0.00    +0.255 HD
ATOM      6 HH22 ARG A   1       1.811  -8.934  21.009  0.00  0.00    +0.255 HD
ATOM      7  NH1 ARG A   1       4.308  -8.595  21.079  0.00  0.00    -0.292 N 
ATOM      8 HH11 ARG A   1       5.324  -8.404  21.195  0.00  0.00    +0.255 HD
ATOM      9 HH12 ARG A   1       3.971  -9.136  20.257  0.00  0.00    +0.255 HD
ENDROOT
BRANCH   1  10
ATOM     10  CD  ARG A   1       2.982  -6.930  24.070  0.00  0.00    +0.174 C 
BRANCH  10  11
ATOM     11  CG  ARG A   1       3.726  -6.100  25.092  0.00  0.00    +0.045 C 
BRANCH  11  12
ATOM     12  CB  ARG A   1       2.750  -5.379  25.992  0.00  0.00    +0.029 C 
BRANCH  12  13
ATOM     13  CA  ARG A   1       3.392  -4.374  26.946  0.00  0.00    +0.133 C 
BRANCH  13  14
ATOM     14  N   ARG A   1       4.024  -5.059  28.067  0.00  0.00    -0.239 NA
ATOM     15  H   ARG A   1       3.978  -6.096  28.127  0.00  0.00    +0.142 HD
ENDBRANCH  13  14
BRANCH  13  16
ATOM     16  C   ARG A   1       2.315  -3.428  27.477  0.00  0.00    +0.224 C 
ATOM     17  O   ARG A   1       1.511  -3.809  28.327  0.00  0.00    -0.287 OA
ENDBRANCH  13  16
ENDBRANCH  12  13
ENDBRANCH  11  12
ENDBRANCH  10  11
ENDBRANCH   1  10
TORSDOF 6
REMARK  Name = ../refined-set-2016/1k6c/1k6c_pocket.pdb
REMARK  240 active torsions:
REMARK  status: ('A' for Active; 'I' for Inactive)
REMARK    1  A    between atoms: _1  and  _3
REMARK    2  A    between atoms: _3  and  _4
REMARK    3  A    between atoms: _3  and  _6
REMARK    4  A    between atoms: _6  and  _7
REMARK    5  A    between atoms: _7  and  _8
REMARK    6  A    between atoms: _8  and  _9
REMARK    7  A    between atoms: _18  and  _20
REMARK    8  A    between atoms: _20  and  _21
REMARK    9  A    between atoms: _20  and  _23
REMARK   10  A    between atoms: _23  and  _24
REMARK   11  A    between atoms: _27  and  _29
REMARK   12  A    between atoms: _29  and  _30
REMARK   13  A    between atoms: _29  and  _32
REMARK   14  A    between atoms: _32  and  _33
REMARK   15  A    between atoms: _36  and  _38
REMARK   16  A    between atoms: _38  and  _39
REMARK   17  A    between atoms: _38  and  _41
REMARK   18  A    between atoms: _41  and  _42
REMARK   19  A    between atoms: _45  and  _47
REMARK   20  A    between atoms: _47  and  _48
REMARK   21  A    between atoms: _47  and  _50
REMARK   22  A    between atoms: _50  and  _51
REMARK   23  A    between atoms: _54  and  _56
REMARK   24  A    between atoms: _56  and  _57
REMARK   25  A    between atoms: _56  and  _59
REMARK   26  A    between atoms: _59  and  _60
REMARK   27  A    between atoms: _63  and  _65
REMARK   28  A    between atoms: _65  and  _66
REMARK   29  A    between atoms: _68  and  _70
REMARK   30  A    between atoms: _70  and  _71
REMARK   31  A    between atoms: _74  and  _76
REMARK   32  A    between atoms: _76  and  _77
REMARK   33  A    between atoms: _76  and  _79
REMARK   34  A    between atoms: _79  and  _80
REMARK   35  A    between atoms: _83  and  _85
REMARK   36  A    between atoms: _85  and  _86
REMARK   37  A    between atoms: _85  and  _88
REMARK   38  A    between atoms: _88  and  _89
REMARK   39  A    between atoms: _92  and  _94
REMARK   40  A    between atoms: _94  and  _95
REMARK   41  A    between atoms: _94  and  _97
REMARK   42  A    between atoms: _97  and  _98
REMARK   43  A    between atoms: _101  and  _103
REMARK   44  A    between atoms: _103  and  _104
REMARK   45  A    between atoms: _103  and  _106
REMARK   46  A    between atoms: _109  and  _111
REMARK   47  A    between atoms: _111  and  _112
REMARK   48  A    between atoms: _111  and  _114
REMARK   49  A    between atoms: _114  and  _115
REMARK   50  A    between atoms: _118  and  _120
REMARK   51  A    between atoms: _120  and  _121
REMARK   52  A    between atoms: _120  and  _123
REMARK   53  A    between atoms: _123  and  _124
REMARK   54  A    between atoms: _124  and  _125
REMARK   55  A    between atoms: _125  and  _126
REMARK   56  A    between atoms: _126  and  _127
REMARK   57  A    between atoms: _131  and  _133
REMARK   58  A    between atoms: _133  and  _134
REMARK   59  A    between atoms: _133  and  _136
REMARK   60  A    between atoms: _136  and  _137
REMARK   61  A    between atoms: _137  and  _138
REMARK   62  A    between atoms: _140  and  _142
REMARK   63  A    between atoms: _142  and  _143
REMARK   64  A    between atoms: _142  and  _145
REMARK   65  A    between atoms: _145  and  _146
REMARK   66  A    between atoms: _149  and  _151
REMARK   67  A    between atoms: _151  and  _152
REMARK   68  A    between atoms: _154  and  _156
REMARK   69  A    between atoms: _156  and  _157
REMARK   70  A    between atoms: _159  and  _161
REMARK   71  A    between atoms: _161  and  _162
REMARK   72  A    between atoms: _161  and  _164
REMARK   73  A    between atoms: _164  and  _165
REMARK   74  A    between atoms: _168  and  _170
REMARK   75  A    between atoms: _170  and  _171
REMARK   76  A    between atoms: _173  and  _175
REMARK   77  A    between atoms: _175  and  _176
REMARK   78  A    between atoms: _178  and  _180
REMARK   79  A    between atoms: _180  and  _181
REMARK   80  A    between atoms: _180  and  _183
REMARK   81  A    between atoms: _183  and  _184
REMARK   82  A    between atoms: _190  and  _192
REMARK   83  A    between atoms: _192  and  _193
REMARK   84  A    between atoms: _192  and  _195
REMARK   85  A    between atoms: _195  and  _196
REMARK   86  A    between atoms: _199  and  _201
REMARK   87  A    between atoms: _201  and  _202
REMARK   88  A    between atoms: _201  and  _204
REMARK   89  A    between atoms: _207  and  _209
REMARK   90  A    between atoms: _209  and  _210
REMARK   91  A    between atoms: _209  and  _212
REMARK   92  A    between atoms: _212  and  _213
REMARK   93  A    between atoms: _216  and  _218
REMARK   94  A    between atoms: _218  and  _219
REMARK   95  A    between atoms: _218  and  _221
REMARK   96  A    between atoms: _221  and  _222
REMARK   97  A    between atoms: _226  and  _227
REMARK   98  A    between atoms: _232  and  _234
REMARK   99  A    between atoms: _234  and  _235
REMARK  100  A    between atoms: _234  and  _237
REMARK  101  A    between atoms: _237  and  _238
REMARK  102  A    between atoms: _241  and  _243
REMARK  103  A    between atoms: _243  and  _244
REMARK  104  A    between atoms: _243  and  _246
REMARK  105  A    between atoms: _246  and  _247
REMARK  106  A    between atoms: _252  and  _254
REMARK  107  A    between atoms: _254  and  _255
REMARK  108  A    between atoms: _254  and  _257
REMARK  109  A    between atoms: _260  and  _262
REMARK  110  A    between atoms: _262  and  _263
REMARK  111  A    between atoms: _262  and  _265
REMARK  112  A    between atoms: _265  and  _266
REMARK  113  A    between atoms: _269  and  _271
REMARK  114  A    between atoms: _271  and  _272
REMARK  115  A    between atoms: _274  and  _276
REMARK  116  A    between atoms: _276  and  _277
REMARK  117  A    between atoms: _276  and  _279
REMARK  118  A    between atoms: _279  and  _280
REMARK  119  A    between atoms: _280  and  _281
REMARK  120  A    between atoms: _281  and  _282
REMARK  121  A    between atoms: _291  and  _293
REMARK  122  A    between atoms: _293  and  _294
REMARK  123  A    between atoms: _293  and  _296
REMARK  124  A    between atoms: _296  and  _297
REMARK  125  A    between atoms: _297  and  _298
REMARK  126  A    between atoms: _298  and  _299
REMARK  127  A    between atoms: _308  and  _310
REMARK  128  A    between atoms: _310  and  _311
REMARK  129  A    between atoms: _310  and  _313
REMARK  130  A    between atoms: _313  and  _314
REMARK  131  A    between atoms: _317  and  _319
REMARK  132  A    between atoms: _319  and  _320
REMARK  133  A    between atoms: _319  and  _322
REMARK  134  A    between atoms: _322  and  _323
REMARK  135  A    between atoms: _326  and  _328
REMARK  136  A    between atoms: _328  and  _329
REMARK  137  A    between atoms: _328  and  _331
REMARK  138  A    between atoms: _331  and  _332
REMARK  139  A    between atoms: _335  and  _337
REMARK  140  A    between atoms: _337  and  _338
REMARK  141  A    between atoms: _337  and  _340
REMARK  142  A    between atoms: _340  and  _341
REMARK  143  A    between atoms: _344  and  _346
REMARK  144  A    between atoms: _346  and  _347
REMARK  145  A    between atoms: _349  and  _351
REMARK  146  A    between atoms: _351  and  _352
REMARK  147  A    between atoms: _355  and  _357
REMARK  148  A    between atoms: _357  and  _358
REMARK  149  A    between atoms: _357  and  _360
REMARK  150  A    between atoms: _360  and  _361
REMARK  151  A    between atoms: _364  and  _366
REMARK  152  A    between atoms: _366  and  _367
REMARK  153  A    between atoms: _366  and  _369
REMARK  154  A    between atoms: _369  and  _370
REMARK  155  A    between atoms: _373  and  _375
REMARK  156  A    between atoms: _375  and  _376
REMARK  157  A    between atoms: _375  and  _378
REMARK  158  A    between atoms: _378  and  _379
REMARK  159  A    between atoms: _382  and  _384
REMARK  160  A    between atoms: _384  and  _385
REMARK  161  A    between atoms: _384  and  _387
REMARK  162  A    between atoms: _390  and  _392
REMARK  163  A    between atoms: _392  and  _393
REMARK  164  A    between atoms: _392  and  _395
REMARK  165  A    between atoms: _395  and  _396
REMARK  166  A    between atoms: _399  and  _401
REMARK  167  A    between atoms: _401  and  _402
REMARK  168  A    between atoms: _401  and  _404
REMARK  169  A    between atoms: _404  and  _405
REMARK  170  A    between atoms: _405  and  _406
REMARK  171  A    between atoms: _406  and  _407
REMARK  172  A    between atoms: _407  and  _408
REMARK  173  A    between atoms: _412  and  _414
REMARK  174  A    between atoms: _414  and  _415
REMARK  175  A    between atoms: _414  and  _417
REMARK  176  A    between atoms: _417  and  _418
REMARK  177  A    between atoms: _418  and  _419
REMARK  178  A    between atoms: _421  and  _423
REMARK  179  A    between atoms: _423  and  _424
REMARK  180  A    between atoms: _423  and  _426
REMARK  181  A    between atoms: _426  and  _427
REMARK  182  A    between atoms: _430  and  _432
REMARK  183  A    between atoms: _432  and  _433
REMARK  184  A    between atoms: _435  and  _437
REMARK  185  A    between atoms: _437  and  _438
REMARK  186  A    between atoms: _440  and  _442
REMARK  187  A    between atoms: _442  and  _443
REMARK  188  A    between atoms: _442  and  _445
REMARK  189  A    between atoms: _445  and  _446
REMARK  190  A    between atoms: _449  and  _451
REMARK  191  A    between atoms: _451  and  _452
REMARK  192  A    between atoms: _454  and  _456
REMARK  193  A    between atoms: _456  and  _457
REMARK  194  A    between atoms: _459  and  _461
REMARK  195  A    between atoms: _461  and  _462
REMARK  196  A    between atoms: _461  and  _464
REMARK  197  A    between atoms: _464  and  _465
REMARK  198  A    between atoms: _471  and  _473
REMARK  199  A    between atoms: _473  and  _474
REMARK  200  A    between atoms: _473  and  _476
REMARK  201  A    between atoms: _476  and  _477
REMARK  202  A    between atoms: _480  and  _482
REMARK  203  A    between atoms: _482  and  _483
REMARK  204  A    between atoms: _482  and  _485
REMARK  205  A    between atoms: _488  and  _490
REMARK  206  A    between atoms: _490  and  _491
REMARK  207  A    between atoms: _490  and  _493
REMARK  208  A    between atoms: _493  and  _494
REMARK  209  A    between atoms: _497  and  _499
REMARK  210  A    between atoms: _499  and  _500
REMARK  211  A    between atoms: _499  and  _502
REMARK  212  A    between atoms: _502  and  _503
REMARK  213  A    between atoms: _507  and  _508
REMARK  214  A    between atoms: _513  and  _515
REMARK  215  A    between atoms: _515  and  _516
REMARK  216  A    between atoms: _515  and  _518
REMARK  217  A    between atoms: _518  and  _519
REMARK  218  A    between atoms: _522  and  _524
REMARK  219  A    between atoms: _524  and  _525
REMARK  220  A    between atoms: _524  and  _527
REMARK  221  A    between atoms: _527  and  _528
REMARK  222  A    between atoms: _533  and  _535
REMARK  223  A    between atoms: _535  and  _536
REMARK  224  A    between atoms: _535  and  _538
REMARK  225  A    between atoms: _541  and  _543
REMARK  226  A    between atoms: _543  and  _544
REMARK  227  A    between atoms: _543  and  _546
REMARK  228  A    between atoms: _546  and  _547
REMARK  229  A    between atoms: _550  and  _552
REMARK  230  A    between atoms: _552  and  _553
REMARK  231  A    between atoms: _555  and  _557
REMARK  232  A    between atoms: _557  and  _558
REMARK  233  A    between atoms: _557  and  _560
REMARK  234  A    between atoms: _560  and  _561
REMARK  235  A    between atoms: _561  and  _562
REMARK  236  A    between atoms: _562  and  _563
REMARK  237  A    between atoms: _572  and  _574
REMARK  238  A    between atoms: _574  and  _575
REMARK  239  A    between atoms: _574  and  _577
REMARK  240  A    between atoms: _577  and  _578
REMARK                            x       y       z     vdW  Elec       q    Type
REMARK                         _______ _______ _______ _____ _____    ______ ____
ROOT
ATOM      1  C   ALA A   6       1.730   5.188  14.633  0.00  0.00    +0.241 C 
ATOM      2  O   ALA A   6       1.208   5.815  15.556  0.00  0.00    -0.273 OA
ATOM      3  N   ASP A   7       1.751   5.635  13.375  0.00  0.00    -0.297 N 
ATOM      4  H   ASP A   7       2.209   5.070  12.632  0.00  0.00    +0.150 HD
ENDROOT
BRANCH   1   5
ATOM      5  CA  ALA A   6       2.383   3.832  14.914  0.00  0.00    +0.149 C 
ATOM      6  CB  ALA A   6       1.312   2.833  15.357  0.00  0.00    +0.031 C 
BRANCH   5   8
ATOM      7  C   GLY A   5       4.688   4.113  15.665  0.00  0.00    +0.243 C 
ATOM      8  N   ALA A   6       3.400   3.968  15.954  0.00  0.00    -0.297 N 
ATOM      9  H   ALA A   6       3.106   3.951  16.951  0.00  0.00    +0.150 HD
ATOM     10  O   GLY A   5       5.108   4.126  14.515  0.00  0.00    -0.273 OA
BRANCH   7  11
ATOM     11  CA  GLY A   5       5.642   4.253  16.844  0.00  0.00    +0.176 C 
BRANCH  11  13
ATOM     12  C   THR A   4       4.583   5.595  18.563  0.00  0.00    +0.243 C 
ATOM     13  N   GLY A   5       4.945   4.395  18.113  0.00  0.00    -0.295 N 
ATOM     14  H   GLY A   5       4.727   3.548  18.676  0.00  0.00    +0.150 HD
ATOM     15  O   THR A   4       4.814   6.642  17.950  0.00  0.00    -0.273 OA
BRANCH  12  16
ATOM     16  CA  THR A   4       3.845   5.636  19.900  0.00  0.00    +0.176 C 
BRANCH  16  18
ATOM     17  C   ASP A   3       2.310   3.764  19.761  0.00  0.00    +0.241 C 
ATOM     18  N   THR A   4       3.357   4.336  20.343  0.00  0.00    -0.295 N 
ATOM     19  H   THR A   4       3.836   3.849  21.127  0.00  0.00    +0.150 HD
ATOM     20  O   ASP A   3       1.715   4.280  18.819  0.00  0.00    -0.273 OA
BRANCH  17  21
ATOM     21  CA  ASP A   3       1.880   2.409  20.320  0.00  0.00    +0.160 C 
BRANCH  21  24
ATOM     22  C   LEU A   2       0.767   2.005  22.448  0.00  0.00    +0.241 C 
ATOM     23  O   LEU A   2       1.805   1.608  22.981  0.00  0.00    -0.273 OA
ATOM     24  N   ASP A   3       0.721   2.467  21.205  0.00  0.00    -0.297 N 
ATOM     25  H   ASP A   3      -0.165   2.882  20.852  0.00  0.00    +0.150 HD
BRANCH  22  26
ATOM     26  CA  LEU A   2      -0.560   1.997  23.207  0.00  0.00    +0.149 C 
BRANCH  26  28
ATOM     27  C   LEU A   1      -1.364  -0.149  22.339  0.00  0.00    +0.238 C 
ATOM     28  N   LEU A   2      -0.851   0.563  23.344  0.00  0.00    -0.297 N 
ATOM     29  H   LEU A   2      -0.652   0.090  24.249  0.00  0.00    +0.150 HD
ATOM     30  O   LEU A   1      -1.675   0.348  21.257  0.00  0.00    -0.274 OA
BRANCH  27  31
ATOM     31  CA  LEU A   1      -1.568  -1.645  22.575  0.00  0.00    +0.145 C 
BRANCH  31  32
ATOM     32  N   LEU A   1      -2.897  -2.072  22.192  0.00  0.00    -0.238 NA
ATOM     33  H   LEU A   1      -3.098  -2.233  21.184  0.00  0.00    +0.142 HD
ENDBRANCH  31  32
BRANCH  31  34
ATOM     34  CB  LEU A   1      -0.576  -2.425  21.734  0.00  0.00    +0.026 C 
BRANCH  34  35
ATOM     35  CG  LEU A   1       0.912  -2.347  22.010  0.00  0.00    +0.002 C 
ATOM     36  CD2 LEU A   1       1.232  -3.223  23.220  0.00  0.00    +0.000 C 
ATOM     37  CD1 LEU A   1       1.672  -2.836  20.776  0.00  0.00    +0.000 C 
ENDBRANCH  34  35
ENDBRANCH  31  34
ENDBRANCH  27  31
ENDBRANCH  26  28
BRANCH  26  38
ATOM     38  CB  LEU A   2      -0.411   2.671  24.581  0.00  0.00    +0.029 C 
BRANCH  38  39
ATOM     39  CG  LEU A   2      -1.696   2.735  25.412  0.00  0.00    +0.002 C 
ATOM     40  CD2 LEU A   2      -1.438   3.514  26.708  0.00  0.00    +0.000 C 
ATOM     41  CD1 LEU A   2      -2.812   3.405  24.585  0.00  0.00    +0.000 C 
ENDBRANCH  38  39
ENDBRANCH  26  38
ENDBRANCH  22  26
ENDBRANCH  21  24
BRANCH  21  42
ATOM     42  CB  ASP A   3       1.510   1.423  19.200  0.00  0.00    +0.143 C 
BRANCH  42  43
ATOM     43  CG  ASP A   3       2.641   1.141  18.240  0.00  0.00    +0.367 C 
ATOM     44  OD2 ASP A   3       3.756   1.661  18.430  0.00  0.00    -0.246 OA
ATOM     45  OD1 ASP A   3       2.391   0.375  17.283  0.00  0.00    -0.246 OA
ENDBRANCH  42  43
ENDBRANCH  21  42
ENDBRANCH  17  21
ENDBRANCH  16  18
BRANCH  16  46
ATOM     46  CB  THR A   4       4.764   6.264  20.957  0.00  0.00    +0.137 C 
ATOM     47  CG2 THR A   4       3.982   6.484  22.270  0.00  0.00    +0.034 C 
BRANCH  46  48
ATOM     48  OG1 THR A   4       5.882   5.399  21.191  0.00  0.00    -0.382 OA
ATOM     49  HG1 THR A   4       6.384   5.275  20.347  0.00  0.00    +0.210 HD
ENDBRANCH  46  48
ENDBRANCH  16  46
ENDBRANCH  12  16
ENDBRANCH  11  13
ENDBRANCH   7  11
ENDBRANCH   5   8
ENDBRANCH   1   5
BRANCH   3  50
ATOM     50  CA  ASP A   7       1.132   6.916  13.038  0.00  0.00    +0.160 C 
BRANCH  50  51
ATOM     51  C   ASP A   7      -0.382   6.811  13.169  0.00  0.00    +0.241 C 
ATOM     52  O   ASP A   7      -1.053   7.764  13.575  0.00  0.00    -0.273 OA
ATOM     53  N   ASP A   8      -0.911   5.647  12.813  0.00  0.00    -0.297 N 
ATOM     54  H   ASP A   8      -0.290   4.872  12.503  0.00  0.00    +0.150 HD
BRANCH  53  55
ATOM     55  CA  ASP A   8      -2.343   5.446  12.852  0.00  0.00    +0.160 C 
BRANCH  55  56
ATOM     56  C   ASP A   8      -2.779   4.321  13.768  0.00  0.00    +0.241 C 
ATOM     57  O   ASP A   8      -1.963   3.577  14.312  0.00  0.00    -0.273 OA
ATOM     58  N   THR A   9      -4.092   4.234  13.935  0.00  0.00    -0.295 N 
ATOM     59  H   THR A   9      -4.694   4.926  13.445  0.00  0.00    +0.150 HD
BRANCH  58  60
ATOM     60  CA  THR A   9      -4.736   3.234  14.758  0.00  0.00    +0.176 C 
BRANCH  60  61
ATOM     61  C   THR A   9      -5.299   2.142  13.842  0.00  0.00    +0.243 C 
ATOM     62  N   VAL A  10      -4.938   0.898  14.130  0.00  0.00    -0.297 N 
ATOM     63  H   VAL A  10      -4.308   0.724  14.939  0.00  0.00    +0.150 HD
ATOM     64  O   THR A   9      -6.036   2.425  12.899  0.00  0.00    -0.273 OA
BRANCH  62  65
ATOM     65  CA  VAL A  10      -5.407  -0.229  13.335  0.00  0.00    +0.149 C 
BRANCH  65  66
ATOM     66  C   VAL A  10      -5.905  -1.338  14.254  0.00  0.00    +0.241 C 
ATOM     67  O   VAL A  10      -5.243  -1.714  15.216  0.00  0.00    -0.273 OA
ATOM     68  N   LEU A  11      -7.092  -1.845  13.954  0.00  0.00    -0.298 N 
ATOM     69  H   LEU A  11      -7.614  -1.468  13.137  0.00  0.00    +0.150 HD
BRANCH  68  70
ATOM     70  CA  LEU A  11      -7.682  -2.916  14.740  0.00  0.00    +0.137 C 
BRANCH  70  71
ATOM     71  C   LEU A  11      -7.867  -4.171  13.924  0.00  0.00    +0.227 C 
ATOM     72  O   LEU A  11      -7.916  -4.134  12.699  0.00  0.00    -0.286 OA
ENDBRANCH  70  71
BRANCH  70  73
ATOM     73  CB  LEU A  11      -9.046  -2.491  15.281  0.00  0.00    +0.028 C 
BRANCH  73  74
ATOM     74  CG  LEU A  11      -9.154  -1.153  16.005  0.00  0.00    +0.002 C 
ATOM     75  CD2 LEU A  11      -8.254  -1.153  17.223  0.00  0.00    +0.000 C 
ATOM     76  CD1 LEU A  11     -10.610  -0.931  16.423  0.00  0.00    +0.000 C 
ENDBRANCH  73  74
ENDBRANCH  70  73
ENDBRANCH  68  70
ENDBRANCH  65  66
BRANCH  65  77
ATOM     77  CB  VAL A  10      -4.277  -0.776  12.425  0.00  0.00    +0.027 C 
ATOM     78  CG2 VAL A  10      -4.737  -2.009  11.675  0.00  0.00    +0.002 C 
ATOM     79  CG1 VAL A  10      -3.843   0.295  11.442  0.00  0.00    +0.002 C 
ENDBRANCH  65  77
ENDBRANCH  62  65
ENDBRANCH  60  61
BRANCH  60  80
ATOM     80  CB  THR A   9      -5.865   3.897  15.577  0.00  0.00    +0.137 C 
ATOM     81  CG2 THR A   9      -6.729   2.867  16.274  0.00  0.00    +0.034 C 
BRANCH  80  82
ATOM     82  OG1 THR A   9      -5.277   4.787  16.533  0.00  0.00    -0.382 OA
ATOM     83  HG1 THR A   9      -4.753   5.480  16.058  0.00  0.00    +0.210 HD
ENDBRANCH  80  82
ENDBRANCH  60  80
ENDBRANCH  58  60
ENDBRANCH  55  56
BRANCH  55  84
ATOM     84  CB  ASP A   8      -2.862   5.178  11.437  0.00  0.00    +0.143 C 
BRANCH  84  85
ATOM     85  CG  ASP A   8      -2.493   6.286  10.462  0.00  0.00    +0.367 C 
ATOM     86  OD2 ASP A   8      -2.904   7.442  10.690  0.00  0.00    -0.246 OA
ATOM     87  OD1 ASP A   8      -1.780   5.986   9.487  0.00  0.00    -0.246 OA
ENDBRANCH  84  85
ENDBRANCH  55  84
ENDBRANCH  53  55
ENDBRANCH  50  51
BRANCH  50  88
ATOM     88  CB  ASP A   7       1.422   7.346  11.596  0.00  0.00    +0.143 C 
BRANCH  88  89
ATOM     89  CG  ASP A   7       2.891   7.529  11.313  0.00  0.00    +0.367 C 
ATOM     90  OD2 ASP A   7       3.638   8.010  12.196  0.00  0.00    -0.246 OA
ATOM     91  OD1 ASP A   7       3.293   7.198  10.181  0.00  0.00    -0.246 OA
ENDBRANCH  88  89
ENDBRANCH  50  88
ENDBRANCH   3  50
TORSDOF 39
REMARK  Name = ../refined-set-2016/1k6c/1k6c_pocket.pdb
REMARK  240 active torsions:
REMARK  status: ('A' for Active; 'I' for Inactive)
REMARK    1  A    between atoms: _1  and  _3
REMARK    2  A    between atoms: _3  and  _4
REMARK    3  A    between atoms: _3  and  _6
REMARK    4  A    between atoms: _6  and  _7
REMARK    5  A    between atoms: _7  and  _8
REMARK    6  A    between atoms: _8  and  _9
REMARK    7  A    between atoms: _18  and  _20
REMARK    8  A    between atoms: _20  and  _21
REMARK    9  A    between atoms: _20  and  _23
REMARK   10  A    between atoms: _23  and  _24
REMARK   11  A    between atoms: _27  and  _29
REMARK   12  A    between atoms: _29  and  _30
REMARK   13  A    between atoms: _29  and  _32
REMARK   14  A    between atoms: _32  and  _33
REMARK   15  A    between atoms: _36  and  _38
REMARK   16  A    between atoms: _38  and  _39
REMARK   17  A    between atoms: _38  and  _41
REMARK   18  A    between atoms: _41  and  _42
REMARK   19  A    between atoms: _45  and  _47
REMARK   20  A    between atoms: _47  and  _48
REMARK   21  A    between atoms: _47  and  _50
REMARK   22  A    between atoms: _50  and  _51
REMARK   23  A    between atoms: _54  and  _56
REMARK   24  A    between atoms: _56  and  _57
REMARK   25  A    between atoms: _56  and  _59
REMARK   26  A    between atoms: _59  and  _60
REMARK   27  A    between atoms: _63  and  _65
REMARK   28  A    between atoms: _65  and  _66
REMARK   29  A    between atoms: _68  and  _70
REMARK   30  A    between atoms: _70  and  _71
REMARK   31  A    between atoms: _74  and  _76
REMARK   32  A    between atoms: _76  and  _77
REMARK   33  A    between atoms: _76  and  _79
REMARK   34  A    between atoms: _79  and  _80
REMARK   35  A    between atoms: _83  and  _85
REMARK   36  A    between atoms: _85  and  _86
REMARK   37  A    between atoms: _85  and  _88
REMARK   38  A    between atoms: _88  and  _89
REMARK   39  A    between atoms: _92  and  _94
REMARK   40  A    between atoms: _94  and  _95
REMARK   41  A    between atoms: _94  and  _97
REMARK   42  A    between atoms: _97  and  _98
REMARK   43  A    between atoms: _101  and  _103
REMARK   44  A    between atoms: _103  and  _104
REMARK   45  A    between atoms: _103  and  _106
REMARK   46  A    between atoms: _109  and  _111
REMARK   47  A    between atoms: _111  and  _112
REMARK   48  A    between atoms: _111  and  _114
REMARK   49  A    between atoms: _114  and  _115
REMARK   50  A    between atoms: _118  and  _120
REMARK   51  A    between atoms: _120  and  _121
REMARK   52  A    between atoms: _120  and  _123
REMARK   53  A    between atoms: _123  and  _124
REMARK   54  A    between atoms: _124  and  _125
REMARK   55  A    between atoms: _125  and  _126
REMARK   56  A    between atoms: _126  and  _127
REMARK   57  A    between atoms: _131  and  _133
REMARK   58  A    between atoms: _133  and  _134
REMARK   59  A    between atoms: _133  and  _136
REMARK   60  A    between atoms: _136  and  _137
REMARK   61  A    between atoms: _137  and  _138
REMARK   62  A    between atoms: _140  and  _142
REMARK   63  A    between atoms: _142  and  _143
REMARK   64  A    between atoms: _142  and  _145
REMARK   65  A    between atoms: _145  and  _146
REMARK   66  A    between atoms: _149  and  _151
REMARK   67  A    between atoms: _151  and  _152
REMARK   68  A    between atoms: _154  and  _156
REMARK   69  A    between atoms: _156  and  _157
REMARK   70  A    between atoms: _159  and  _161
REMARK   71  A    between atoms: _161  and  _162
REMARK   72  A    between atoms: _161  and  _164
REMARK   73  A    between atoms: _164  and  _165
REMARK   74  A    between atoms: _168  and  _170
REMARK   75  A    between atoms: _170  and  _171
REMARK   76  A    between atoms: _173  and  _175
REMARK   77  A    between atoms: _175  and  _176
REMARK   78  A    between atoms: _178  and  _180
REMARK   79  A    between atoms: _180  and  _181
REMARK   80  A    between atoms: _180  and  _183
REMARK   81  A    between atoms: _183  and  _184
REMARK   82  A    between atoms: _190  and  _192
REMARK   83  A    between atoms: _192  and  _193
REMARK   84  A    between atoms: _192  and  _195
REMARK   85  A    between atoms: _195  and  _196
REMARK   86  A    between atoms: _199  and  _201
REMARK   87  A    between atoms: _201  and  _202
REMARK   88  A    between atoms: _201  and  _204
REMARK   89  A    between atoms: _207  and  _209
REMARK   90  A    between atoms: _209  and  _210
REMARK   91  A    between atoms: _209  and  _212
REMARK   92  A    between atoms: _212  and  _213
REMARK   93  A    between atoms: _216  and  _218
REMARK   94  A    between atoms: _218  and  _219
REMARK   95  A    between atoms: _218  and  _221
REMARK   96  A    between atoms: _221  and  _222
REMARK   97  A    between atoms: _226  and  _227
REMARK   98  A    between atoms: _232  and  _234
REMARK   99  A    between atoms: _234  and  _235
REMARK  100  A    between atoms: _234  and  _237
REMARK  101  A    between atoms: _237  and  _238
REMARK  102  A    between atoms: _241  and  _243
REMARK  103  A    between atoms: _243  and  _244
REMARK  104  A    between atoms: _243  and  _246
REMARK  105  A    between atoms: _246  and  _247
REMARK  106  A    between atoms: _252  and  _254
REMARK  107  A    between atoms: _254  and  _255
REMARK  108  A    between atoms: _254  and  _257
REMARK  109  A    between atoms: _260  and  _262
REMARK  110  A    between atoms: _262  and  _263
REMARK  111  A    between atoms: _262  and  _265
REMARK  112  A    between atoms: _265  and  _266
REMARK  113  A    between atoms: _269  and  _271
REMARK  114  A    between atoms: _271  and  _272
REMARK  115  A    between atoms: _274  and  _276
REMARK  116  A    between atoms: _276  and  _277
REMARK  117  A    between atoms: _276  and  _279
REMARK  118  A    between atoms: _279  and  _280
REMARK  119  A    between atoms: _280  and  _281
REMARK  120  A    between atoms: _281  and  _282
REMARK  121  A    between atoms: _291  and  _293
REMARK  122  A    between atoms: _293  and  _294
REMARK  123  A    between atoms: _293  and  _296
REMARK  124  A    between atoms: _296  and  _297
REMARK  125  A    between atoms: _297  and  _298
REMARK  126  A    between atoms: _298  and  _299
REMARK  127  A    between atoms: _308  and  _310
REMARK  128  A    between atoms: _310  and  _311
REMARK  129  A    between atoms: _310  and  _313
REMARK  130  A    between atoms: _313  and  _314
REMARK  131  A    between atoms: _317  and  _319
REMARK  132  A    between atoms: _319  and  _320
REMARK  133  A    between atoms: _319  and  _322
REMARK  134  A    between atoms: _322  and  _323
REMARK  135  A    between atoms: _326  and  _328
REMARK  136  A    between atoms: _328  and  _329
REMARK  137  A    between atoms: _328  and  _331
REMARK  138  A    between atoms: _331  and  _332
REMARK  139  A    between atoms: _335  and  _337
REMARK  140  A    between atoms: _337  and  _338
REMARK  141  A    between atoms: _337  and  _340
REMARK  142  A    between atoms: _340  and  _341
REMARK  143  A    between atoms: _344  and  _346
REMARK  144  A    between atoms: _346  and  _347
REMARK  145  A    between atoms: _349  and  _351
REMARK  146  A    between atoms: _351  and  _352
REMARK  147  A    between atoms: _355  and  _357
REMARK  148  A    between atoms: _357  and  _358
REMARK  149  A    between atoms: _357  and  _360
REMARK  150  A    between atoms: _360  and  _361
REMARK  151  A    between atoms: _364  and  _366
REMARK  152  A    between atoms: _366  and  _367
REMARK  153  A    between atoms: _366  and  _369
REMARK  154  A    between atoms: _369  and  _370
REMARK  155  A    between atoms: _373  and  _375
REMARK  156  A    between atoms: _375  and  _376
REMARK  157  A    between atoms: _375  and  _378
REMARK  158  A    between atoms: _378  and  _379
REMARK  159  A    between atoms: _382  and  _384
REMARK  160  A    between atoms: _384  and  _385
REMARK  161  A    between atoms: _384  and  _387
REMARK  162  A    between atoms: _390  and  _392
REMARK  163  A    between atoms: _392  and  _393
REMARK  164  A    between atoms: _392  and  _395
REMARK  165  A    between atoms: _395  and  _396
REMARK  166  A    between atoms: _399  and  _401
REMARK  167  A    between atoms: _401  and  _402
REMARK  168  A    between atoms: _401  and  _404
REMARK  169  A    between atoms: _404  and  _405
REMARK  170  A    between atoms: _405  and  _406
REMARK  171  A    between atoms: _406  and  _407
REMARK  172  A    between atoms: _407  and  _408
REMARK  173  A    between atoms: _412  and  _414
REMARK  174  A    between atoms: _414  and  _415
REMARK  175  A    between atoms: _414  and  _417
REMARK  176  A    between atoms: _417  and  _418
REMARK  177  A    between atoms: _418  and  _419
REMARK  178  A    between atoms: _421  and  _423
REMARK  179  A    between atoms: _423  and  _424
REMARK  180  A    between atoms: _423  and  _426
REMARK  181  A    between atoms: _426  and  _427
REMARK  182  A    between atoms: _430  and  _432
REMARK  183  A    between atoms: _432  and  _433
REMARK  184  A    between atoms: _435  and  _437
REMARK  185  A    between atoms: _437  and  _438
REMARK  186  A    between atoms: _440  and  _442
REMARK  187  A    between atoms: _442  and  _443
REMARK  188  A    between atoms: _442  and  _445
REMARK  189  A    between atoms: _445  and  _446
REMARK  190  A    between atoms: _449  and  _451
REMARK  191  A    between atoms: _451  and  _452
REMARK  192  A    between atoms: _454  and  _456
REMARK  193  A    between atoms: _456  and  _457
REMARK  194  A    between atoms: _459  and  _461
REMARK  195  A    between atoms: _461  and  _462
REMARK  196  A    between atoms: _461  and  _464
REMARK  197  A    between atoms: _464  and  _465
REMARK  198  A    between atoms: _471  and  _473
REMARK  199  A    between atoms: _473  and  _474
REMARK  200  A    between atoms: _473  and  _476
REMARK  201  A    between atoms: _476  and  _477
REMARK  202  A    between atoms: _480  and  _482
REMARK  203  A    between atoms: _482  and  _483
REMARK  204  A    between atoms: _482  and  _485
REMARK  205  A    between atoms: _488  and  _490
REMARK  206  A    between atoms: _490  and  _491
REMARK  207  A    between atoms: _490  and  _493
REMARK  208  A    between atoms: _493  and  _494
REMARK  209  A    between atoms: _497  and  _499
REMARK  210  A    between atoms: _499  and  _500
REMARK  211  A    between atoms: _499  and  _502
REMARK  212  A    between atoms: _502  and  _503
REMARK  213  A    between atoms: _507  and  _508
REMARK  214  A    between atoms: _513  and  _515
REMARK  215  A    between atoms: _515  and  _516
REMARK  216  A    between atoms: _515  and  _518
REMARK  217  A    between atoms: _518  and  _519
REMARK  218  A    between atoms: _522  and  _524
REMARK  219  A    between atoms: _524  and  _525
REMARK  220  A    between atoms: _524  and  _527
REMARK  221  A    between atoms: _527  and  _528
REMARK  222  A    between atoms: _533  and  _535
REMARK  223  A    between atoms: _535  and  _536
REMARK  224  A    between atoms: _535  and  _538
REMARK  225  A    between atoms: _541  and  _543
REMARK  226  A    between atoms: _543  and  _544
REMARK  227  A    between atoms: _543  and  _546
REMARK  228  A    between atoms: _546  and  _547
REMARK  229  A    between atoms: _550  and  _552
REMARK  230  A    between atoms: _552  and  _553
REMARK  231  A    between atoms: _555  and  _557
REMARK  232  A    between atoms: _557  and  _558
REMARK  233  A    between atoms: _557  and  _560
REMARK  234  A    between atoms: _560  and  _561
REMARK  235  A    between atoms: _561  and  _562
REMARK  236  A    between atoms: _562  and  _563
REMARK  237  A    between atoms: _572  and  _574
REMARK  238  A    between atoms: _574  and  _575
REMARK  239  A    between atoms: _574  and  _577
REMARK  240  A    between atoms: _577  and  _578
REMARK                            x       y       z     vdW  Elec       q    Type
REMARK                         _______ _______ _______ _____ _____    ______ ____
ROOT
ATOM      1  C   GLY A   5       6.738  -2.085   8.259  0.00  0.00    +0.243 C 
ATOM      2  N   ILE A   6       7.163  -2.646   9.387  0.00  0.00    -0.297 N 
ATOM      3  H   ILE A   6       6.762  -2.331  10.294  0.00  0.00    +0.150 HD
ATOM      4  O   GLY A   5       7.160  -2.394   7.142  0.00  0.00    -0.273 OA
ENDROOT
BRANCH   2   5
ATOM      5  CA  ILE A   6       8.173  -3.687   9.382  0.00  0.00    +0.149 C 
BRANCH   5   6
ATOM      6  C   ILE A   6       7.504  -4.894   8.747  0.00  0.00    +0.241 C 
ATOM      7  O   ILE A   6       6.387  -5.264   9.111  0.00  0.00    -0.273 OA
ATOM      8  N   GLY A   7       8.188  -5.511   7.796  0.00  0.00    -0.295 N 
ATOM      9  H   GLY A   7       9.131  -5.168   7.523  0.00  0.00    +0.150 HD
BRANCH   8  10
ATOM     10  CA  GLY A   7       7.615  -6.665   7.140  0.00  0.00    +0.176 C 
BRANCH  10  11
ATOM     11  C   GLY A   7       6.984  -6.281   5.820  0.00  0.00    +0.243 C 
ATOM     12  N   GLY A   8       6.386  -5.092   5.749  0.00  0.00    -0.295 N 
ATOM     13  H   GLY A   8       6.356  -4.463   6.577  0.00  0.00    +0.150 HD
ATOM     14  O   GLY A   7       7.037  -7.055   4.867  0.00  0.00    -0.273 OA
BRANCH  12  15
ATOM     15  CA  GLY A   8       5.775  -4.691   4.490  0.00  0.00    +0.176 C 
BRANCH  15  16
ATOM     16  C   GLY A   8       4.430  -3.987   4.600  0.00  0.00    +0.243 C 
ATOM     17  O   GLY A   8       4.068  -3.480   5.662  0.00  0.00    -0.273 OA
ATOM     18  N   PHE A   9       3.692  -3.971   3.492  0.00  0.00    -0.297 N 
ATOM     19  H   PHE A   9       4.067  -4.441   2.644  0.00  0.00    +0.150 HD
BRANCH  18  20
ATOM     20  CA  PHE A   9       2.381  -3.327   3.405  0.00  0.00    +0.153 C 
BRANCH  20  21
ATOM     21  C   PHE A   9       1.198  -4.281   3.486  0.00  0.00    +0.241 C 
ATOM     22  N   ILE A  10       0.096  -3.801   4.056  0.00  0.00    -0.298 N 
ATOM     23  H   ILE A  10       0.107  -2.834   4.439  0.00  0.00    +0.150 HD
ATOM     24  O   PHE A   9       1.279  -5.415   3.035  0.00  0.00    -0.273 OA
BRANCH  22  25
ATOM     25  CA  ILE A  10      -1.131  -4.592   4.160  0.00  0.00    +0.137 C 
BRANCH  25  26
ATOM     26  C   ILE A  10      -2.318  -3.745   3.718  0.00  0.00    +0.227 C 
ATOM     27  O   ILE A  10      -2.235  -2.511   3.687  0.00  0.00    -0.286 OA
ENDBRANCH  25  26
BRANCH  25  28
ATOM     28  CB  ILE A  10      -1.392  -5.109   5.612  0.00  0.00    +0.026 C 
ATOM     29  CG2 ILE A  10      -0.218  -5.959   6.090  0.00  0.00    +0.002 C 
BRANCH  28  30
ATOM     30  CG1 ILE A  10      -1.594  -3.942   6.576  0.00  0.00    +0.002 C 
ATOM     31  CD1 ILE A  10      -2.079  -4.395   7.952  0.00  0.00    +0.000 C 
ENDBRANCH  28  30
ENDBRANCH  25  28
ENDBRANCH  22  25
ENDBRANCH  20  21
BRANCH  20  32
ATOM     32  CB  PHE A   9       2.273  -2.537   2.090  0.00  0.00    +0.055 C 
BRANCH  32  33
ATOM     33  CG  PHE A   9       3.148  -1.331   2.037  0.00  0.00    -0.020 A 
ATOM     34  CD2 PHE A   9       2.591  -0.055   2.086  0.00  0.00    -0.004 A 
ATOM     35  CE2 PHE A   9       3.406   1.076   2.115  0.00  0.00    -0.000 A 
ATOM     36  CZ  PHE A   9       4.790   0.932   2.090  0.00  0.00    -0.000 A 
ATOM     37  CE1 PHE A   9       5.355  -0.337   2.033  0.00  0.00    -0.000 A 
ATOM     38  CD1 PHE A   9       4.529  -1.462   2.005  0.00  0.00    -0.004 A 
ENDBRANCH  32  33
ENDBRANCH  20  32
ENDBRANCH  18  20
ENDBRANCH  15  16
ENDBRANCH  12  15
ENDBRANCH  10  11
ENDBRANCH   8  10
ENDBRANCH   5   6
BRANCH   5  39
ATOM     39  CB  ILE A   6       8.608  -4.066  10.811  0.00  0.00    +0.027 C 
ATOM     40  CG2 ILE A   6       9.681  -5.148  10.752  0.00  0.00    +0.002 C 
BRANCH  39  41
ATOM     41  CG1 ILE A   6       9.118  -2.830  11.556  0.00  0.00    +0.002 C 
ATOM     42  CD1 ILE A   6      10.422  -2.272  11.032  0.00  0.00    +0.000 C 
ENDBRANCH  39  41
ENDBRANCH   5  39
ENDBRANCH   2   5
BRANCH   1  43
ATOM     43  CA  GLY A   5       5.656  -1.044   8.413  0.00  0.00    +0.176 C 
BRANCH  43  46
ATOM     44  C   GLY A   4       3.978  -0.091   6.986  0.00  0.00    +0.243 C 
ATOM     45  O   GLY A   4       3.869   0.905   7.691  0.00  0.00    -0.273 OA
ATOM     46  N   GLY A   5       4.797  -1.092   7.260  0.00  0.00    -0.295 N 
ATOM     47  H   GLY A   5       4.821  -1.923   6.635  0.00  0.00    +0.150 HD
BRANCH  44  48
ATOM     48  CA  GLY A   4       3.166  -0.259   5.727  0.00  0.00    +0.176 C 
BRANCH  48  50
ATOM     49  C   ILE A   3       0.836   0.057   5.320  0.00  0.00    +0.241 C 
ATOM     50  N   GLY A   4       1.992   0.582   5.688  0.00  0.00    -0.295 N 
ATOM     51  H   GLY A   4       2.056   1.587   5.946  0.00  0.00    +0.150 HD
ATOM     52  O   ILE A   3       0.713  -1.134   5.014  0.00  0.00    -0.273 OA
BRANCH  49  53
ATOM     53  CA  ILE A   3      -0.348   1.009   5.300  0.00  0.00    +0.149 C 
BRANCH  53  55
ATOM     54  C   MET A   2      -1.814   1.205   3.369  0.00  0.00    +0.241 C 
ATOM     55  N   ILE A   3      -1.340   0.482   4.374  0.00  0.00    -0.297 N 
ATOM     56  H   ILE A   3      -1.687  -0.490   4.505  0.00  0.00    +0.150 HD
ATOM     57  O   MET A   2      -1.477   2.364   3.153  0.00  0.00    -0.273 OA
BRANCH  54  58
ATOM     58  CA  MET A   2      -2.820   0.511   2.476  0.00  0.00    +0.149 C 
BRANCH  58  61
ATOM     59  C   LYS A   1      -5.196   0.910   2.327  0.00  0.00    +0.238 C 
ATOM     60  O   LYS A   1      -5.450  -0.249   2.648  0.00  0.00    -0.274 OA
ATOM     61  N   MET A   2      -3.958   1.365   2.203  0.00  0.00    -0.297 N 
ATOM     62  H   MET A   2      -3.801   2.349   1.906  0.00  0.00    +0.150 HD
BRANCH  59  63
ATOM     63  CA  LYS A   1      -6.312   1.904   2.035  0.00  0.00    +0.145 C 
BRANCH  63  64
ATOM     64  N   LYS A   1      -7.558   1.188   1.816  0.00  0.00    -0.238 NA
ATOM     65  H   LYS A   1      -7.713   0.275   2.290  0.00  0.00    +0.142 HD
ENDBRANCH  63  64
BRANCH  63  66
ATOM     66  CB  LYS A   1      -6.458   2.881   3.204  0.00  0.00    +0.026 C 
BRANCH  66  67
ATOM     67  CG  LYS A   1      -5.225   3.721   3.473  0.00  0.00    -0.000 C 
BRANCH  67  68
ATOM     68  CD  LYS A   1      -5.461   4.712   4.605  0.00  0.00    -0.024 C 
BRANCH  68  69
ATOM     69  CE  LYS A   1      -4.224   5.552   4.870  0.00  0.00    -0.086 C 
BRANCH  69  70
ATOM     70  NZ  LYS A   1      -4.440   6.528   5.974  0.00  0.00    +0.380 N 
ATOM     71  HZ1 LYS A   1      -4.679   6.015   6.847  0.00  0.00    -0.089 HD
ATOM     72  HZ2 LYS A   1      -3.571   7.080   6.122  0.00  0.00    -0.089 HD
ATOM     73  HZ3 LYS A   1      -5.220   7.168   5.722  0.00  0.00    -0.089 HD
ENDBRANCH  69  70
ENDBRANCH  68  69
ENDBRANCH  67  68
ENDBRANCH  66  67
ENDBRANCH  63  66
ENDBRANCH  59  63
ENDBRANCH  58  61
BRANCH  58  74
ATOM     74  CB  MET A   2      -2.132   0.104   1.178  0.00  0.00    +0.041 C 
BRANCH  74  75
ATOM     75  CG  MET A   2      -2.869  -0.949   0.396  0.00  0.00    +0.060 C 
BRANCH  75  76
ATOM     76  SD  MET A   2      -1.763  -1.582  -0.856  0.00  0.00    -0.139 S 
ATOM     77  CE  MET A   2      -1.825  -0.249  -2.005  0.00  0.00    +0.069 C 
ENDBRANCH  75  76
ENDBRANCH  74  75
ENDBRANCH  58  74
ENDBRANCH  54  58
ENDBRANCH  53  55
BRANCH  53  78
ATOM     78  CB  ILE A   3      -0.909   1.133   6.739  0.00  0.00    +0.027 C 
ATOM     79  CG2 ILE A   3      -1.977   2.223   6.804  0.00  0.00    +0.002 C 
BRANCH  78  80
ATOM     80  CG1 ILE A   3      -1.485  -0.209   7.189  0.00  0.00    +0.002 C 
ATOM     81  CD1 ILE A   3      -1.959  -0.205   8.627  0.00  0.00    +0.000 C 
ENDBRANCH  78  80
ENDBRANCH  53  78
ENDBRANCH  49  53
ENDBRANCH  48  50
ENDBRANCH  44  48
ENDBRANCH  43  46
ENDBRANCH   1  43
TORSDOF 36
REMARK  Name = ../refined-set-2016/1k6c/1k6c_pocket.pdb
REMARK  240 active torsions:
REMARK  status: ('A' for Active; 'I' for Inactive)
REMARK    1  A    between atoms: _1  and  _3
REMARK    2  A    between atoms: _3  and  _4
REMARK    3  A    between atoms: _3  and  _6
REMARK    4  A    between atoms: _6  and  _7
REMARK    5  A    between atoms: _7  and  _8
REMARK    6  A    between atoms: _8  and  _9
REMARK    7  A    between atoms: _18  and  _20
REMARK    8  A    between atoms: _20  and  _21
REMARK    9  A    between atoms: _20  and  _23
REMARK   10  A    between atoms: _23  and  _24
REMARK   11  A    between atoms: _27  and  _29
REMARK   12  A    between atoms: _29  and  _30
REMARK   13  A    between atoms: _29  and  _32
REMARK   14  A    between atoms: _32  and  _33
REMARK   15  A    between atoms: _36  and  _38
REMARK   16  A    between atoms: _38  and  _39
REMARK   17  A    between atoms: _38  and  _41
REMARK   18  A    between atoms: _41  and  _42
REMARK   19  A    between atoms: _45  and  _47
REMARK   20  A    between atoms: _47  and  _48
REMARK   21  A    between atoms: _47  and  _50
REMARK   22  A    between atoms: _50  and  _51
REMARK   23  A    between atoms: _54  and  _56
REMARK   24  A    between atoms: _56  and  _57
REMARK   25  A    between atoms: _56  and  _59
REMARK   26  A    between atoms: _59  and  _60
REMARK   27  A    between atoms: _63  and  _65
REMARK   28  A    between atoms: _65  and  _66
REMARK   29  A    between atoms: _68  and  _70
REMARK   30  A    between atoms: _70  and  _71
REMARK   31  A    between atoms: _74  and  _76
REMARK   32  A    between atoms: _76  and  _77
REMARK   33  A    between atoms: _76  and  _79
REMARK   34  A    between atoms: _79  and  _80
REMARK   35  A    between atoms: _83  and  _85
REMARK   36  A    between atoms: _85  and  _86
REMARK   37  A    between atoms: _85  and  _88
REMARK   38  A    between atoms: _88  and  _89
REMARK   39  A    between atoms: _92  and  _94
REMARK   40  A    between atoms: _94  and  _95
REMARK   41  A    between atoms: _94  and  _97
REMARK   42  A    between atoms: _97  and  _98
REMARK   43  A    between atoms: _101  and  _103
REMARK   44  A    between atoms: _103  and  _104
REMARK   45  A    between atoms: _103  and  _106
REMARK   46  A    between atoms: _109  and  _111
REMARK   47  A    between atoms: _111  and  _112
REMARK   48  A    between atoms: _111  and  _114
REMARK   49  A    between atoms: _114  and  _115
REMARK   50  A    between atoms: _118  and  _120
REMARK   51  A    between atoms: _120  and  _121
REMARK   52  A    between atoms: _120  and  _123
REMARK   53  A    between atoms: _123  and  _124
REMARK   54  A    between atoms: _124  and  _125
REMARK   55  A    between atoms: _125  and  _126
REMARK   56  A    between atoms: _126  and  _127
REMARK   57  A    between atoms: _131  and  _133
REMARK   58  A    between atoms: _133  and  _134
REMARK   59  A    between atoms: _133  and  _136
REMARK   60  A    between atoms: _136  and  _137
REMARK   61  A    between atoms: _137  and  _138
REMARK   62  A    between atoms: _140  and  _142
REMARK   63  A    between atoms: _142  and  _143
REMARK   64  A    between atoms: _142  and  _145
REMARK   65  A    between atoms: _145  and  _146
REMARK   66  A    between atoms: _149  and  _151
REMARK   67  A    between atoms: _151  and  _152
REMARK   68  A    between atoms: _154  and  _156
REMARK   69  A    between atoms: _156  and  _157
REMARK   70  A    between atoms: _159  and  _161
REMARK   71  A    between atoms: _161  and  _162
REMARK   72  A    between atoms: _161  and  _164
REMARK   73  A    between atoms: _164  and  _165
REMARK   74  A    between atoms: _168  and  _170
REMARK   75  A    between atoms: _170  and  _171
REMARK   76  A    between atoms: _173  and  _175
REMARK   77  A    between atoms: _175  and  _176
REMARK   78  A    between atoms: _178  and  _180
REMARK   79  A    between atoms: _180  and  _181
REMARK   80  A    between atoms: _180  and  _183
REMARK   81  A    between atoms: _183  and  _184
REMARK   82  A    between atoms: _190  and  _192
REMARK   83  A    between atoms: _192  and  _193
REMARK   84  A    between atoms: _192  and  _195
REMARK   85  A    between atoms: _195  and  _196
REMARK   86  A    between atoms: _199  and  _201
REMARK   87  A    between atoms: _201  and  _202
REMARK   88  A    between atoms: _201  and  _204
REMARK   89  A    between atoms: _207  and  _209
REMARK   90  A    between atoms: _209  and  _210
REMARK   91  A    between atoms: _209  and  _212
REMARK   92  A    between atoms: _212  and  _213
REMARK   93  A    between atoms: _216  and  _218
REMARK   94  A    between atoms: _218  and  _219
REMARK   95  A    between atoms: _218  and  _221
REMARK   96  A    between atoms: _221  and  _222
REMARK   97  A    between atoms: _226  and  _227
REMARK   98  A    between atoms: _232  and  _234
REMARK   99  A    between atoms: _234  and  _235
REMARK  100  A    between atoms: _234  and  _237
REMARK  101  A    between atoms: _237  and  _238
REMARK  102  A    between atoms: _241  and  _243
REMARK  103  A    between atoms: _243  and  _244
REMARK  104  A    between atoms: _243  and  _246
REMARK  105  A    between atoms: _246  and  _247
REMARK  106  A    between atoms: _252  and  _254
REMARK  107  A    between atoms: _254  and  _255
REMARK  108  A    between atoms: _254  and  _257
REMARK  109  A    between atoms: _260  and  _262
REMARK  110  A    between atoms: _262  and  _263
REMARK  111  A    between atoms: _262  and  _265
REMARK  112  A    between atoms: _265  and  _266
REMARK  113  A    between atoms: _269  and  _271
REMARK  114  A    between atoms: _271  and  _272
REMARK  115  A    between atoms: _274  and  _276
REMARK  116  A    between atoms: _276  and  _277
REMARK  117  A    between atoms: _276  and  _279
REMARK  118  A    between atoms: _279  and  _280
REMARK  119  A    between atoms: _280  and  _281
REMARK  120  A    between atoms: _281  and  _282
REMARK  121  A    between atoms: _291  and  _293
REMARK  122  A    between atoms: _293  and  _294
REMARK  123  A    between atoms: _293  and  _296
REMARK  124  A    between atoms: _296  and  _297
REMARK  125  A    between atoms: _297  and  _298
REMARK  126  A    between atoms: _298  and  _299
REMARK  127  A    between atoms: _308  and  _310
REMARK  128  A    between atoms: _310  and  _311
REMARK  129  A    between atoms: _310  and  _313
REMARK  130  A    between atoms: _313  and  _314
REMARK  131  A    between atoms: _317  and  _319
REMARK  132  A    between atoms: _319  and  _320
REMARK  133  A    between atoms: _319  and  _322
REMARK  134  A    between atoms: _322  and  _323
REMARK  135  A    between atoms: _326  and  _328
REMARK  136  A    between atoms: _328  and  _329
REMARK  137  A    between atoms: _328  and  _331
REMARK  138  A    between atoms: _331  and  _332
REMARK  139  A    between atoms: _335  and  _337
REMARK  140  A    between atoms: _337  and  _338
REMARK  141  A    between atoms: _337  and  _340
REMARK  142  A    between atoms: _340  and  _341
REMARK  143  A    between atoms: _344  and  _346
REMARK  144  A    between atoms: _346  and  _347
REMARK  145  A    between atoms: _349  and  _351
REMARK  146  A    between atoms: _351  and  _352
REMARK  147  A    between atoms: _355  and  _357
REMARK  148  A    between atoms: _357  and  _358
REMARK  149  A    between atoms: _357  and  _360
REMARK  150  A    between atoms: _360  and  _361
REMARK  151  A    between atoms: _364  and  _366
REMARK  152  A    between atoms: _366  and  _367
REMARK  153  A    between atoms: _366  and  _369
REMARK  154  A    between atoms: _369  and  _370
REMARK  155  A    between atoms: _373  and  _375
REMARK  156  A    between atoms: _375  and  _376
REMARK  157  A    between atoms: _375  and  _378
REMARK  158  A    between atoms: _378  and  _379
REMARK  159  A    between atoms: _382  and  _384
REMARK  160  A    between atoms: _384  and  _385
REMARK  161  A    between atoms: _384  and  _387
REMARK  162  A    between atoms: _390  and  _392
REMARK  163  A    between atoms: _392  and  _393
REMARK  164  A    between atoms: _392  and  _395
REMARK  165  A    between atoms: _395  and  _396
REMARK  166  A    between atoms: _399  and  _401
REMARK  167  A    between atoms: _401  and  _402
REMARK  168  A    between atoms: _401  and  _404
REMARK  169  A    between atoms: _404  and  _405
REMARK  170  A    between atoms: _405  and  _406
REMARK  171  A    between atoms: _406  and  _407
REMARK  172  A    between atoms: _407  and  _408
REMARK  173  A    between atoms: _412  and  _414
REMARK  174  A    between atoms: _414  and  _415
REMARK  175  A    between atoms: _414  and  _417
REMARK  176  A    between atoms: _417  and  _418
REMARK  177  A    between atoms: _418  and  _419
REMARK  178  A    between atoms: _421  and  _423
REMARK  179  A    between atoms: _423  and  _424
REMARK  180  A    between atoms: _423  and  _426
REMARK  181  A    between atoms: _426  and  _427
REMARK  182  A    between atoms: _430  and  _432
REMARK  183  A    between atoms: _432  and  _433
REMARK  184  A    between atoms: _435  and  _437
REMARK  185  A    between atoms: _437  and  _438
REMARK  186  A    between atoms: _440  and  _442
REMARK  187  A    between atoms: _442  and  _443
REMARK  188  A    between atoms: _442  and  _445
REMARK  189  A    between atoms: _445  and  _446
REMARK  190  A    between atoms: _449  and  _451
REMARK  191  A    between atoms: _451  and  _452
REMARK  192  A    between atoms: _454  and  _456
REMARK  193  A    between atoms: _456  and  _457
REMARK  194  A    between atoms: _459  and  _461
REMARK  195  A    between atoms: _461  and  _462
REMARK  196  A    between atoms: _461  and  _464
REMARK  197  A    between atoms: _464  and  _465
REMARK  198  A    between atoms: _471  and  _473
REMARK  199  A    between atoms: _473  and  _474
REMARK  200  A    between atoms: _473  and  _476
REMARK  201  A    between atoms: _476  and  _477
REMARK  202  A    between atoms: _480  and  _482
REMARK  203  A    between atoms: _482  and  _483
REMARK  204  A    between atoms: _482  and  _485
REMARK  205  A    between atoms: _488  and  _490
REMARK  206  A    between atoms: _490  and  _491
REMARK  207  A    between atoms: _490  and  _493
REMARK  208  A    between atoms: _493  and  _494
REMARK  209  A    between atoms: _497  and  _499
REMARK  210  A    between atoms: _499  and  _500
REMARK  211  A    between atoms: _499  and  _502
REMARK  212  A    between atoms: _502  and  _503
REMARK  213  A    between atoms: _507  and  _508
REMARK  214  A    between atoms: _513  and  _515
REMARK  215  A    between atoms: _515  and  _516
REMARK  216  A    between atoms: _515  and  _518
REMARK  217  A    between atoms: _518  and  _519
REMARK  218  A    between atoms: _522  and  _524
REMARK  219  A    between atoms: _524  and  _525
REMARK  220  A    between atoms: _524  and  _527
REMARK  221  A    between atoms: _527  and  _528
REMARK  222  A    between atoms: _533  and  _535
REMARK  223  A    between atoms: _535  and  _536
REMARK  224  A    between atoms: _535  and  _538
REMARK  225  A    between atoms: _541  and  _543
REMARK  226  A    between atoms: _543  and  _544
REMARK  227  A    between atoms: _543  and  _546
REMARK  228  A    between atoms: _546  and  _547
REMARK  229  A    between atoms: _550  and  _552
REMARK  230  A    between atoms: _552  and  _553
REMARK  231  A    between atoms: _555  and  _557
REMARK  232  A    between atoms: _557  and  _558
REMARK  233  A    between atoms: _557  and  _560
REMARK  234  A    between atoms: _560  and  _561
REMARK  235  A    between atoms: _561  and  _562
REMARK  236  A    between atoms: _562  and  _563
REMARK  237  A    between atoms: _572  and  _574
REMARK  238  A    between atoms: _574  and  _575
REMARK  239  A    between atoms: _574  and  _577
REMARK  240  A    between atoms: _577  and  _578
REMARK                            x       y       z     vdW  Elec       q    Type
REMARK                         _______ _______ _______ _____ _____    ______ ____
ROOT
ATOM      1  CA  VAL A   1      -7.028  -2.079   5.390  0.00  0.00    +0.133 C 
ENDROOT
BRANCH   1   2
ATOM      2  CB  VAL A   1      -6.362  -1.281   6.535  0.00  0.00    +0.023 C 
ATOM      3  CG2 VAL A   1      -5.215  -2.078   7.146  0.00  0.00    +0.002 C 
ATOM      4  CG1 VAL A   1      -5.855   0.051   6.005  0.00  0.00    +0.002 C 
ENDBRANCH   1   2
BRANCH   1   5
ATOM      5  N   VAL A   1      -6.077  -2.332   4.317  0.00  0.00    -0.239 NA
ATOM      6  H   VAL A   1      -5.746  -1.542   3.727  0.00  0.00    +0.142 HD
ENDBRANCH   1   5
BRANCH   1   7
ATOM      7  C   VAL A   1      -8.262  -1.302   4.929  0.00  0.00    +0.224 C 
ATOM      8  O   VAL A   1      -8.284  -0.751   3.827  0.00  0.00    -0.287 OA
ENDBRANCH   1   7
TORSDOF 3
REMARK  Name = ../refined-set-2016/1k6c/1k6c_pocket.pdb
REMARK  240 active torsions:
REMARK  status: ('A' for Active; 'I' for Inactive)
REMARK    1  A    between atoms: _1  and  _3
REMARK    2  A    between atoms: _3  and  _4
REMARK    3  A    between atoms: _3  and  _6
REMARK    4  A    between atoms: _6  and  _7
REMARK    5  A    between atoms: _7  and  _8
REMARK    6  A    between atoms: _8  and  _9
REMARK    7  A    between atoms: _18  and  _20
REMARK    8  A    between atoms: _20  and  _21
REMARK    9  A    between atoms: _20  and  _23
REMARK   10  A    between atoms: _23  and  _24
REMARK   11  A    between atoms: _27  and  _29
REMARK   12  A    between atoms: _29  and  _30
REMARK   13  A    between atoms: _29  and  _32
REMARK   14  A    between atoms: _32  and  _33
REMARK   15  A    between atoms: _36  and  _38
REMARK   16  A    between atoms: _38  and  _39
REMARK   17  A    between atoms: _38  and  _41
REMARK   18  A    between atoms: _41  and  _42
REMARK   19  A    between atoms: _45  and  _47
REMARK   20  A    between atoms: _47  and  _48
REMARK   21  A    between atoms: _47  and  _50
REMARK   22  A    between atoms: _50  and  _51
REMARK   23  A    between atoms: _54  and  _56
REMARK   24  A    between atoms: _56  and  _57
REMARK   25  A    between atoms: _56  and  _59
REMARK   26  A    between atoms: _59  and  _60
REMARK   27  A    between atoms: _63  and  _65
REMARK   28  A    between atoms: _65  and  _66
REMARK   29  A    between atoms: _68  and  _70
REMARK   30  A    between atoms: _70  and  _71
REMARK   31  A    between atoms: _74  and  _76
REMARK   32  A    between atoms: _76  and  _77
REMARK   33  A    between atoms: _76  and  _79
REMARK   34  A    between atoms: _79  and  _80
REMARK   35  A    between atoms: _83  and  _85
REMARK   36  A    between atoms: _85  and  _86
REMARK   37  A    between atoms: _85  and  _88
REMARK   38  A    between atoms: _88  and  _89
REMARK   39  A    between atoms: _92  and  _94
REMARK   40  A    between atoms: _94  and  _95
REMARK   41  A    between atoms: _94  and  _97
REMARK   42  A    between atoms: _97  and  _98
REMARK   43  A    between atoms: _101  and  _103
REMARK   44  A    between atoms: _103  and  _104
REMARK   45  A    between atoms: _103  and  _106
REMARK   46  A    between atoms: _109  and  _111
REMARK   47  A    between atoms: _111  and  _112
REMARK   48  A    between atoms: _111  and  _114
REMARK   49  A    between atoms: _114  and  _115
REMARK   50  A    between atoms: _118  and  _120
REMARK   51  A    between atoms: _120  and  _121
REMARK   52  A    between atoms: _120  and  _123
REMARK   53  A    between atoms: _123  and  _124
REMARK   54  A    between atoms: _124  and  _125
REMARK   55  A    between atoms: _125  and  _126
REMARK   56  A    between atoms: _126  and  _127
REMARK   57  A    between atoms: _131  and  _133
REMARK   58  A    between atoms: _133  and  _134
REMARK   59  A    between atoms: _133  and  _136
REMARK   60  A    between atoms: _136  and  _137
REMARK   61  A    between atoms: _137  and  _138
REMARK   62  A    between atoms: _140  and  _142
REMARK   63  A    between atoms: _142  and  _143
REMARK   64  A    between atoms: _142  and  _145
REMARK   65  A    between atoms: _145  and  _146
REMARK   66  A    between atoms: _149  and  _151
REMARK   67  A    between atoms: _151  and  _152
REMARK   68  A    between atoms: _154  and  _156
REMARK   69  A    between atoms: _156  and  _157
REMARK   70  A    between atoms: _159  and  _161
REMARK   71  A    between atoms: _161  and  _162
REMARK   72  A    between atoms: _161  and  _164
REMARK   73  A    between atoms: _164  and  _165
REMARK   74  A    between atoms: _168  and  _170
REMARK   75  A    between atoms: _170  and  _171
REMARK   76  A    between atoms: _173  and  _175
REMARK   77  A    between atoms: _175  and  _176
REMARK   78  A    between atoms: _178  and  _180
REMARK   79  A    between atoms: _180  and  _181
REMARK   80  A    between atoms: _180  and  _183
REMARK   81  A    between atoms: _183  and  _184
REMARK   82  A    between atoms: _190  and  _192
REMARK   83  A    between atoms: _192  and  _193
REMARK   84  A    between atoms: _192  and  _195
REMARK   85  A    between atoms: _195  and  _196
REMARK   86  A    between atoms: _199  and  _201
REMARK   87  A    between atoms: _201  and  _202
REMARK   88  A    between atoms: _201  and  _204
REMARK   89  A    between atoms: _207  and  _209
REMARK   90  A    between atoms: _209  and  _210
REMARK   91  A    between atoms: _209  and  _212
REMARK   92  A    between atoms: _212  and  _213
REMARK   93  A    between atoms: _216  and  _218
REMARK   94  A    between atoms: _218  and  _219
REMARK   95  A    between atoms: _218  and  _221
REMARK   96  A    between atoms: _221  and  _222
REMARK   97  A    between atoms: _226  and  _227
REMARK   98  A    between atoms: _232  and  _234
REMARK   99  A    between atoms: _234  and  _235
REMARK  100  A    between atoms: _234  and  _237
REMARK  101  A    between atoms: _237  and  _238
REMARK  102  A    between atoms: _241  and  _243
REMARK  103  A    between atoms: _243  and  _244
REMARK  104  A    between atoms: _243  and  _246
REMARK  105  A    between atoms: _246  and  _247
REMARK  106  A    between atoms: _252  and  _254
REMARK  107  A    between atoms: _254  and  _255
REMARK  108  A    between atoms: _254  and  _257
REMARK  109  A    between atoms: _260  and  _262
REMARK  110  A    between atoms: _262  and  _263
REMARK  111  A    between atoms: _262  and  _265
REMARK  112  A    between atoms: _265  and  _266
REMARK  113  A    between atoms: _269  and  _271
REMARK  114  A    between atoms: _271  and  _272
REMARK  115  A    between atoms: _274  and  _276
REMARK  116  A    between atoms: _276  and  _277
REMARK  117  A    between atoms: _276  and  _279
REMARK  118  A    between atoms: _279  and  _280
REMARK  119  A    between atoms: _280  and  _281
REMARK  120  A    between atoms: _281  and  _282
REMARK  121  A    between atoms: _291  and  _293
REMARK  122  A    between atoms: _293  and  _294
REMARK  123  A    between atoms: _293  and  _296
REMARK  124  A    between atoms: _296  and  _297
REMARK  125  A    between atoms: _297  and  _298
REMARK  126  A    between atoms: _298  and  _299
REMARK  127  A    between atoms: _308  and  _310
REMARK  128  A    between atoms: _310  and  _311
REMARK  129  A    between atoms: _310  and  _313
REMARK  130  A    between atoms: _313  and  _314
REMARK  131  A    between atoms: _317  and  _319
REMARK  132  A    between atoms: _319  and  _320
REMARK  133  A    between atoms: _319  and  _322
REMARK  134  A    between atoms: _322  and  _323
REMARK  135  A    between atoms: _326  and  _328
REMARK  136  A    between atoms: _328  and  _329
REMARK  137  A    between atoms: _328  and  _331
REMARK  138  A    between atoms: _331  and  _332
REMARK  139  A    between atoms: _335  and  _337
REMARK  140  A    between atoms: _337  and  _338
REMARK  141  A    between atoms: _337  and  _340
REMARK  142  A    between atoms: _340  and  _341
REMARK  143  A    between atoms: _344  and  _346
REMARK  144  A    between atoms: _346  and  _347
REMARK  145  A    between atoms: _349  and  _351
REMARK  146  A    between atoms: _351  and  _352
REMARK  147  A    between atoms: _355  and  _357
REMARK  148  A    between atoms: _357  and  _358
REMARK  149  A    between atoms: _357  and  _360
REMARK  150  A    between atoms: _360  and  _361
REMARK  151  A    between atoms: _364  and  _366
REMARK  152  A    between atoms: _366  and  _367
REMARK  153  A    between atoms: _366  and  _369
REMARK  154  A    between atoms: _369  and  _370
REMARK  155  A    between atoms: _373  and  _375
REMARK  156  A    between atoms: _375  and  _376
REMARK  157  A    between atoms: _375  and  _378
REMARK  158  A    between atoms: _378  and  _379
REMARK  159  A    between atoms: _382  and  _384
REMARK  160  A    between atoms: _384  and  _385
REMARK  161  A    between atoms: _384  and  _387
REMARK  162  A    between atoms: _390  and  _392
REMARK  163  A    between atoms: _392  and  _393
REMARK  164  A    between atoms: _392  and  _395
REMARK  165  A    between atoms: _395  and  _396
REMARK  166  A    between atoms: _399  and  _401
REMARK  167  A    between atoms: _401  and  _402
REMARK  168  A    between atoms: _401  and  _404
REMARK  169  A    between atoms: _404  and  _405
REMARK  170  A    between atoms: _405  and  _406
REMARK  171  A    between atoms: _406  and  _407
REMARK  172  A    between atoms: _407  and  _408
REMARK  173  A    between atoms: _412  and  _414
REMARK  174  A    between atoms: _414  and  _415
REMARK  175  A    between atoms: _414  and  _417
REMARK  176  A    between atoms: _417  and  _418
REMARK  177  A    between atoms: _418  and  _419
REMARK  178  A    between atoms: _421  and  _423
REMARK  179  A    between atoms: _423  and  _424
REMARK  180  A    between atoms: _423  and  _426
REMARK  181  A    between atoms: _426  and  _427
REMARK  182  A    between atoms: _430  and  _432
REMARK  183  A    between atoms: _432  and  _433
REMARK  184  A    between atoms: _435  and  _437
REMARK  185  A    between atoms: _437  and  _438
REMARK  186  A    between atoms: _440  and  _442
REMARK  187  A    between atoms: _442  and  _443
REMARK  188  A    between atoms: _442  and  _445
REMARK  189  A    between atoms: _445  and  _446
REMARK  190  A    between atoms: _449  and  _451
REMARK  191  A    between atoms: _451  and  _452
REMARK  192  A    between atoms: _454  and  _456
REMARK  193  A    between atoms: _456  and  _457
REMARK  194  A    between atoms: _459  and  _461
REMARK  195  A    between atoms: _461  and  _462
REMARK  196  A    between atoms: _461  and  _464
REMARK  197  A    between atoms: _464  and  _465
REMARK  198  A    between atoms: _471  and  _473
REMARK  199  A    between atoms: _473  and  _474
REMARK  200  A    between atoms: _473  and  _476
REMARK  201  A    between atoms: _476  and  _477
REMARK  202  A    between atoms: _480  and  _482
REMARK  203  A    between atoms: _482  and  _483
REMARK  204  A    between atoms: _482  and  _485
REMARK  205  A    between atoms: _488  and  _490
REMARK  206  A    between atoms: _490  and  _491
REMARK  207  A    between atoms: _490  and  _493
REMARK  208  A    between atoms: _493  and  _494
REMARK  209  A    between atoms: _497  and  _499
REMARK  210  A    between atoms: _499  and  _500
REMARK  211  A    between atoms: _499  and  _502
REMARK  212  A    between atoms: _502  and  _503
REMARK  213  A    between atoms: _507  and  _508
REMARK  214  A    between atoms: _513  and  _515
REMARK  215  A    between atoms: _515  and  _516
REMARK  216  A    between atoms: _515  and  _518
REMARK  217  A    between atoms: _518  and  _519
REMARK  218  A    between atoms: _522  and  _524
REMARK  219  A    between atoms: _524  and  _525
REMARK  220  A    between atoms: _524  and  _527
REMARK  221  A    between atoms: _527  and  _528
REMARK  222  A    between atoms: _533  and  _535
REMARK  223  A    between atoms: _535  and  _536
REMARK  224  A    between atoms: _535  and  _538
REMARK  225  A    between atoms: _541  and  _543
REMARK  226  A    between atoms: _543  and  _544
REMARK  227  A    between atoms: _543  and  _546
REMARK  228  A    between atoms: _546  and  _547
REMARK  229  A    between atoms: _550  and  _552
REMARK  230  A    between atoms: _552  and  _553
REMARK  231  A    between atoms: _555  and  _557
REMARK  232  A    between atoms: _557  and  _558
REMARK  233  A    between atoms: _557  and  _560
REMARK  234  A    between atoms: _560  and  _561
REMARK  235  A    between atoms: _561  and  _562
REMARK  236  A    between atoms: _562  and  _563
REMARK  237  A    between atoms: _572  and  _574
REMARK  238  A    between atoms: _574  and  _575
REMARK  239  A    between atoms: _574  and  _577
REMARK  240  A    between atoms: _577  and  _578
REMARK                            x       y       z     vdW  Elec       q    Type
REMARK                         _______ _______ _______ _____ _____    ______ ____
ROOT
ATOM      1  CA  LEU A   1      -8.274   1.316  10.312  0.00  0.00    +0.133 C 
ENDROOT
BRANCH   1   2
ATOM      2  N   LEU A   1      -8.554   2.227  11.417  0.00  0.00    -0.239 NA
ATOM      3  H   LEU A   1      -7.872   2.303  12.198  0.00  0.00    +0.142 HD
ENDBRANCH   1   2
BRANCH   1   4
ATOM      4  C   LEU A   1      -8.498  -0.130  10.771  0.00  0.00    +0.224 C 
ATOM      5  O   LEU A   1      -8.125  -0.500  11.877  0.00  0.00    -0.287 OA
ENDBRANCH   1   4
BRANCH   1   6
ATOM      6  CB  LEU A   1      -6.828   1.493   9.833  0.00  0.00    +0.025 C 
BRANCH   6   7
ATOM      7  CG  LEU A   1      -6.418   2.932   9.499  0.00  0.00    +0.002 C 
ATOM      8  CD2 LEU A   1      -4.923   2.971   9.258  0.00  0.00    +0.000 C 
ATOM      9  CD1 LEU A   1      -7.176   3.437   8.272  0.00  0.00    +0.000 C 
ENDBRANCH   6   7
ENDBRANCH   1   6
TORSDOF 4
REMARK  Name = ../refined-set-2016/1k6c/1k6c_pocket.pdb
REMARK  240 active torsions:
REMARK  status: ('A' for Active; 'I' for Inactive)
REMARK    1  A    between atoms: _1  and  _3
REMARK    2  A    between atoms: _3  and  _4
REMARK    3  A    between atoms: _3  and  _6
REMARK    4  A    between atoms: _6  and  _7
REMARK    5  A    between atoms: _7  and  _8
REMARK    6  A    between atoms: _8  and  _9
REMARK    7  A    between atoms: _18  and  _20
REMARK    8  A    between atoms: _20  and  _21
REMARK    9  A    between atoms: _20  and  _23
REMARK   10  A    between atoms: _23  and  _24
REMARK   11  A    between atoms: _27  and  _29
REMARK   12  A    between atoms: _29  and  _30
REMARK   13  A    between atoms: _29  and  _32
REMARK   14  A    between atoms: _32  and  _33
REMARK   15  A    between atoms: _36  and  _38
REMARK   16  A    between atoms: _38  and  _39
REMARK   17  A    between atoms: _38  and  _41
REMARK   18  A    between atoms: _41  and  _42
REMARK   19  A    between atoms: _45  and  _47
REMARK   20  A    between atoms: _47  and  _48
REMARK   21  A    between atoms: _47  and  _50
REMARK   22  A    between atoms: _50  and  _51
REMARK   23  A    between atoms: _54  and  _56
REMARK   24  A    between atoms: _56  and  _57
REMARK   25  A    between atoms: _56  and  _59
REMARK   26  A    between atoms: _59  and  _60
REMARK   27  A    between atoms: _63  and  _65
REMARK   28  A    between atoms: _65  and  _66
REMARK   29  A    between atoms: _68  and  _70
REMARK   30  A    between atoms: _70  and  _71
REMARK   31  A    between atoms: _74  and  _76
REMARK   32  A    between atoms: _76  and  _77
REMARK   33  A    between atoms: _76  and  _79
REMARK   34  A    between atoms: _79  and  _80
REMARK   35  A    between atoms: _83  and  _85
REMARK   36  A    between atoms: _85  and  _86
REMARK   37  A    between atoms: _85  and  _88
REMARK   38  A    between atoms: _88  and  _89
REMARK   39  A    between atoms: _92  and  _94
REMARK   40  A    between atoms: _94  and  _95
REMARK   41  A    between atoms: _94  and  _97
REMARK   42  A    between atoms: _97  and  _98
REMARK   43  A    between atoms: _101  and  _103
REMARK   44  A    between atoms: _103  and  _104
REMARK   45  A    between atoms: _103  and  _106
REMARK   46  A    between atoms: _109  and  _111
REMARK   47  A    between atoms: _111  and  _112
REMARK   48  A    between atoms: _111  and  _114
REMARK   49  A    between atoms: _114  and  _115
REMARK   50  A    between atoms: _118  and  _120
REMARK   51  A    between atoms: _120  and  _121
REMARK   52  A    between atoms: _120  and  _123
REMARK   53  A    between atoms: _123  and  _124
REMARK   54  A    between atoms: _124  and  _125
REMARK   55  A    between atoms: _125  and  _126
REMARK   56  A    between atoms: _126  and  _127
REMARK   57  A    between atoms: _131  and  _133
REMARK   58  A    between atoms: _133  and  _134
REMARK   59  A    between atoms: _133  and  _136
REMARK   60  A    between atoms: _136  and  _137
REMARK   61  A    between atoms: _137  and  _138
REMARK   62  A    between atoms: _140  and  _142
REMARK   63  A    between atoms: _142  and  _143
REMARK   64  A    between atoms: _142  and  _145
REMARK   65  A    between atoms: _145  and  _146
REMARK   66  A    between atoms: _149  and  _151
REMARK   67  A    between atoms: _151  and  _152
REMARK   68  A    between atoms: _154  and  _156
REMARK   69  A    between atoms: _156  and  _157
REMARK   70  A    between atoms: _159  and  _161
REMARK   71  A    between atoms: _161  and  _162
REMARK   72  A    between atoms: _161  and  _164
REMARK   73  A    between atoms: _164  and  _165
REMARK   74  A    between atoms: _168  and  _170
REMARK   75  A    between atoms: _170  and  _171
REMARK   76  A    between atoms: _173  and  _175
REMARK   77  A    between atoms: _175  and  _176
REMARK   78  A    between atoms: _178  and  _180
REMARK   79  A    between atoms: _180  and  _181
REMARK   80  A    between atoms: _180  and  _183
REMARK   81  A    between atoms: _183  and  _184
REMARK   82  A    between atoms: _190  and  _192
REMARK   83  A    between atoms: _192  and  _193
REMARK   84  A    between atoms: _192  and  _195
REMARK   85  A    between atoms: _195  and  _196
REMARK   86  A    between atoms: _199  and  _201
REMARK   87  A    between atoms: _201  and  _202
REMARK   88  A    between atoms: _201  and  _204
REMARK   89  A    between atoms: _207  and  _209
REMARK   90  A    between atoms: _209  and  _210
REMARK   91  A    between atoms: _209  and  _212
REMARK   92  A    between atoms: _212  and  _213
REMARK   93  A    between atoms: _216  and  _218
REMARK   94  A    between atoms: _218  and  _219
REMARK   95  A    between atoms: _218  and  _221
REMARK   96  A    between atoms: _221  and  _222
REMARK   97  A    between atoms: _226  and  _227
REMARK   98  A    between atoms: _232  and  _234
REMARK   99  A    between atoms: _234  and  _235
REMARK  100  A    between atoms: _234  and  _237
REMARK  101  A    between atoms: _237  and  _238
REMARK  102  A    between atoms: _241  and  _243
REMARK  103  A    between atoms: _243  and  _244
REMARK  104  A    between atoms: _243  and  _246
REMARK  105  A    between atoms: _246  and  _247
REMARK  106  A    between atoms: _252  and  _254
REMARK  107  A    between atoms: _254  and  _255
REMARK  108  A    between atoms: _254  and  _257
REMARK  109  A    between atoms: _260  and  _262
REMARK  110  A    between atoms: _262  and  _263
REMARK  111  A    between atoms: _262  and  _265
REMARK  112  A    between atoms: _265  and  _266
REMARK  113  A    between atoms: _269  and  _271
REMARK  114  A    between atoms: _271  and  _272
REMARK  115  A    between atoms: _274  and  _276
REMARK  116  A    between atoms: _276  and  _277
REMARK  117  A    between atoms: _276  and  _279
REMARK  118  A    between atoms: _279  and  _280
REMARK  119  A    between atoms: _280  and  _281
REMARK  120  A    between atoms: _281  and  _282
REMARK  121  A    between atoms: _291  and  _293
REMARK  122  A    between atoms: _293  and  _294
REMARK  123  A    between atoms: _293  and  _296
REMARK  124  A    between atoms: _296  and  _297
REMARK  125  A    between atoms: _297  and  _298
REMARK  126  A    between atoms: _298  and  _299
REMARK  127  A    between atoms: _308  and  _310
REMARK  128  A    between atoms: _310  and  _311
REMARK  129  A    between atoms: _310  and  _313
REMARK  130  A    between atoms: _313  and  _314
REMARK  131  A    between atoms: _317  and  _319
REMARK  132  A    between atoms: _319  and  _320
REMARK  133  A    between atoms: _319  and  _322
REMARK  134  A    between atoms: _322  and  _323
REMARK  135  A    between atoms: _326  and  _328
REMARK  136  A    between atoms: _328  and  _329
REMARK  137  A    between atoms: _328  and  _331
REMARK  138  A    between atoms: _331  and  _332
REMARK  139  A    between atoms: _335  and  _337
REMARK  140  A    between atoms: _337  and  _338
REMARK  141  A    between atoms: _337  and  _340
REMARK  142  A    between atoms: _340  and  _341
REMARK  143  A    between atoms: _344  and  _346
REMARK  144  A    between atoms: _346  and  _347
REMARK  145  A    between atoms: _349  and  _351
REMARK  146  A    between atoms: _351  and  _352
REMARK  147  A    between atoms: _355  and  _357
REMARK  148  A    between atoms: _357  and  _358
REMARK  149  A    between atoms: _357  and  _360
REMARK  150  A    between atoms: _360  and  _361
REMARK  151  A    between atoms: _364  and  _366
REMARK  152  A    between atoms: _366  and  _367
REMARK  153  A    between atoms: _366  and  _369
REMARK  154  A    between atoms: _369  and  _370
REMARK  155  A    between atoms: _373  and  _375
REMARK  156  A    between atoms: _375  and  _376
REMARK  157  A    between atoms: _375  and  _378
REMARK  158  A    between atoms: _378  and  _379
REMARK  159  A    between atoms: _382  and  _384
REMARK  160  A    between atoms: _384  and  _385
REMARK  161  A    between atoms: _384  and  _387
REMARK  162  A    between atoms: _390  and  _392
REMARK  163  A    between atoms: _392  and  _393
REMARK  164  A    between atoms: _392  and  _395
REMARK  165  A    between atoms: _395  and  _396
REMARK  166  A    between atoms: _399  and  _401
REMARK  167  A    between atoms: _401  and  _402
REMARK  168  A    between atoms: _401  and  _404
REMARK  169  A    between atoms: _404  and  _405
REMARK  170  A    between atoms: _405  and  _406
REMARK  171  A    between atoms: _406  and  _407
REMARK  172  A    between atoms: _407  and  _408
REMARK  173  A    between atoms: _412  and  _414
REMARK  174  A    between atoms: _414  and  _415
REMARK  175  A    between atoms: _414  and  _417
REMARK  176  A    between atoms: _417  and  _418
REMARK  177  A    between atoms: _418  and  _419
REMARK  178  A    between atoms: _421  and  _423
REMARK  179  A    between atoms: _423  and  _424
REMARK  180  A    between atoms: _423  and  _426
REMARK  181  A    between atoms: _426  and  _427
REMARK  182  A    between atoms: _430  and  _432
REMARK  183  A    between atoms: _432  and  _433
REMARK  184  A    between atoms: _435  and  _437
REMARK  185  A    between atoms: _437  and  _438
REMARK  186  A    between atoms: _440  and  _442
REMARK  187  A    between atoms: _442  and  _443
REMARK  188  A    between atoms: _442  and  _445
REMARK  189  A    between atoms: _445  and  _446
REMARK  190  A    between atoms: _449  and  _451
REMARK  191  A    between atoms: _451  and  _452
REMARK  192  A    between atoms: _454  and  _456
REMARK  193  A    between atoms: _456  and  _457
REMARK  194  A    between atoms: _459  and  _461
REMARK  195  A    between atoms: _461  and  _462
REMARK  196  A    between atoms: _461  and  _464
REMARK  197  A    between atoms: _464  and  _465
REMARK  198  A    between atoms: _471  and  _473
REMARK  199  A    between atoms: _473  and  _474
REMARK  200  A    between atoms: _473  and  _476
REMARK  201  A    between atoms: _476  and  _477
REMARK  202  A    between atoms: _480  and  _482
REMARK  203  A    between atoms: _482  and  _483
REMARK  204  A    between atoms: _482  and  _485
REMARK  205  A    between atoms: _488  and  _490
REMARK  206  A    between atoms: _490  and  _491
REMARK  207  A    between atoms: _490  and  _493
REMARK  208  A    between atoms: _493  and  _494
REMARK  209  A    between atoms: _497  and  _499
REMARK  210  A    between atoms: _499  and  _500
REMARK  211  A    between atoms: _499  and  _502
REMARK  212  A    between atoms: _502  and  _503
REMARK  213  A    between atoms: _507  and  _508
REMARK  214  A    between atoms: _513  and  _515
REMARK  215  A    between atoms: _515  and  _516
REMARK  216  A    between atoms: _515  and  _518
REMARK  217  A    between atoms: _518  and  _519
REMARK  218  A    between atoms: _522  and  _524
REMARK  219  A    between atoms: _524  and  _525
REMARK  220  A    between atoms: _524  and  _527
REMARK  221  A    between atoms: _527  and  _528
REMARK  222  A    between atoms: _533  and  _535
REMARK  223  A    between atoms: _535  and  _536
REMARK  224  A    between atoms: _535  and  _538
REMARK  225  A    between atoms: _541  and  _543
REMARK  226  A    between atoms: _543  and  _544
REMARK  227  A    between atoms: _543  and  _546
REMARK  228  A    between atoms: _546  and  _547
REMARK  229  A    between atoms: _550  and  _552
REMARK  230  A    between atoms: _552  and  _553
REMARK  231  A    between atoms: _555  and  _557
REMARK  232  A    between atoms: _557  and  _558
REMARK  233  A    between atoms: _557  and  _560
REMARK  234  A    between atoms: _560  and  _561
REMARK  235  A    between atoms: _561  and  _562
REMARK  236  A    between atoms: _562  and  _563
REMARK  237  A    between atoms: _572  and  _574
REMARK  238  A    between atoms: _574  and  _575
REMARK  239  A    between atoms: _574  and  _577
REMARK  240  A    between atoms: _577  and  _578
REMARK                            x       y       z     vdW  Elec       q    Type
REMARK                         _______ _______ _______ _____ _____    ______ ____
ROOT
ATOM      1  C   VAL A   5      -3.450   0.597  18.022  0.00  0.00    +0.241 C 
ATOM      2  N   ILE A   6      -3.237   1.336  19.109  0.00  0.00    -0.297 N 
ATOM      3  H   ILE A   6      -2.691   0.941  19.901  0.00  0.00    +0.150 HD
ATOM      4  O   VAL A   5      -4.130   0.988  17.072  0.00  0.00    -0.273 OA
ENDROOT
BRANCH   1   5
ATOM      5  CA  VAL A   5      -2.814  -0.789  18.001  0.00  0.00    +0.149 C 
BRANCH   5   8
ATOM      6  C   ASN A   4      -3.859  -2.937  18.460  0.00  0.00    +0.241 C 
ATOM      7  O   ASN A   4      -3.196  -3.107  19.483  0.00  0.00    -0.273 OA
ATOM      8  N   VAL A   5      -3.760  -1.853  17.702  0.00  0.00    -0.297 N 
ATOM      9  H   VAL A   5      -4.377  -1.761  16.870  0.00  0.00    +0.150 HD
BRANCH   6  10
ATOM     10  CA  ASN A   4      -4.860  -3.982  17.985  0.00  0.00    +0.158 C 
BRANCH  10  12
ATOM     11  C   THR A   3      -3.277  -5.605  17.104  0.00  0.00    +0.243 C 
ATOM     12  N   ASN A   4      -4.222  -5.296  17.988  0.00  0.00    -0.297 N 
ATOM     13  H   ASN A   4      -4.512  -6.003  18.694  0.00  0.00    +0.150 HD
ATOM     14  O   THR A   3      -2.909  -4.822  16.225  0.00  0.00    -0.273 OA
BRANCH  11  15
ATOM     15  CA  THR A   3      -2.654  -7.008  17.211  0.00  0.00    +0.176 C 
BRANCH  15  18
ATOM     16  C   PRO A   2      -1.937  -8.732  15.664  0.00  0.00    +0.241 C 
ATOM     17  O   PRO A   2      -2.269  -9.628  16.428  0.00  0.00    -0.273 OA
ATOM     18  N   THR A   3      -2.110  -7.442  15.939  0.00  0.00    -0.295 N 
ATOM     19  H   THR A   3      -1.850  -6.730  15.227  0.00  0.00    +0.150 HD
BRANCH  16  23
ATOM     20  C   THR A   1      -2.893  -7.834  12.922  0.00  0.00    +0.244 C 
ATOM     21  O   THR A   1      -3.814  -8.514  13.360  0.00  0.00    -0.273 OA
ATOM     22  N   PRO A   2      -1.631  -8.016  13.333  0.00  0.00    -0.272 N 
ATOM     23  CA  PRO A   2      -1.312  -9.057  14.318  0.00  0.00    +0.152 C 
ATOM     24  CB  PRO A   2       0.221  -9.018  14.397  0.00  0.00    +0.031 C 
ATOM     25  CG  PRO A   2       0.637  -8.316  13.114  0.00  0.00    +0.024 C 
ATOM     26  CD  PRO A   2      -0.418  -7.275  12.944  0.00  0.00    +0.094 C 
BRANCH  20  27
ATOM     27  CA  THR A   1      -3.144  -6.731  11.891  0.00  0.00    +0.172 C 
BRANCH  27  28
ATOM     28  CB  THR A   1      -3.493  -5.399  12.612  0.00  0.00    +0.135 C 
ATOM     29  CG2 THR A   1      -4.795  -5.539  13.411  0.00  0.00    +0.034 C 
BRANCH  28  30
ATOM     30  OG1 THR A   1      -2.427  -5.043  13.505  0.00  0.00    -0.383 OA
ATOM     31  HG1 THR A   1      -2.307  -5.760  14.177  0.00  0.00    +0.210 HD
ENDBRANCH  28  30
ENDBRANCH  27  28
BRANCH  27  32
ATOM     32  N   THR A   1      -4.211  -7.140  10.992  0.00  0.00    -0.236 NA
ATOM     33  H   THR A   1      -5.194  -6.887  11.221  0.00  0.00    +0.142 HD
ENDBRANCH  27  32
ENDBRANCH  20  27
ENDBRANCH  16  23
ENDBRANCH  15  18
BRANCH  15  34
ATOM     34  CB  THR A   3      -1.521  -7.017  18.264  0.00  0.00    +0.137 C 
ATOM     35  CG2 THR A   3      -0.404  -6.114  17.819  0.00  0.00    +0.034 C 
BRANCH  34  36
ATOM     36  OG1 THR A   3      -2.021  -6.570  19.529  0.00  0.00    -0.382 OA
ATOM     37  HG1 THR A   3      -1.288  -6.580  20.194  0.00  0.00    +0.210 HD
ENDBRANCH  34  36
ENDBRANCH  15  34
ENDBRANCH  11  15
ENDBRANCH  10  12
BRANCH  10  38
ATOM     38  CB  ASN A   4      -6.096  -3.980  18.883  0.00  0.00    +0.114 C 
BRANCH  38  39
ATOM     39  CG  ASN A   4      -7.152  -4.955  18.408  0.00  0.00    +0.222 C 
ATOM     40  ND2 ASN A   4      -7.765  -5.669  19.340  0.00  0.00    -0.329 N 
ATOM     41 HD21 ASN A   4      -7.506  -5.550  20.340  0.00  0.00    +0.145 HD
ATOM     42 HD22 ASN A   4      -8.505  -6.349  19.072  0.00  0.00    +0.145 HD
ATOM     43  OD1 ASN A   4      -7.419  -5.056  17.208  0.00  0.00    -0.275 OA
ENDBRANCH  38  39
ENDBRANCH  10  38
ENDBRANCH   6  10
ENDBRANCH   5   8
BRANCH   5  44
ATOM     44  CB  VAL A   5      -1.679  -0.790  16.947  0.00  0.00    +0.027 C 
ATOM     45  CG2 VAL A   5      -0.755   0.388  17.162  0.00  0.00    +0.002 C 
ATOM     46  CG1 VAL A   5      -0.910  -2.103  17.014  0.00  0.00    +0.002 C 
ENDBRANCH   5  44
ENDBRANCH   1   5
BRANCH   2  47
ATOM     47  CA  ILE A   6      -3.758   2.685  19.199  0.00  0.00    +0.149 C 
BRANCH  47  48
ATOM     48  C   ILE A   6      -2.572   3.564  18.801  0.00  0.00    +0.241 C 
ATOM     49  O   ILE A   6      -1.540   3.587  19.486  0.00  0.00    -0.273 OA
ATOM     50  N   GLY A   7      -2.719   4.255  17.676  0.00  0.00    -0.295 N 
ATOM     51  H   GLY A   7      -3.611   4.187  17.146  0.00  0.00    +0.150 HD
BRANCH  50  52
ATOM     52  CA  GLY A   7      -1.655   5.103  17.175  0.00  0.00    +0.176 C 
BRANCH  52  53
ATOM     53  C   GLY A   7      -1.715   6.543  17.650  0.00  0.00    +0.243 C 
ATOM     54  O   GLY A   7      -2.598   6.912  18.423  0.00  0.00    -0.273 OA
ATOM     55  N   ARG A   8      -0.775   7.351  17.163  0.00  0.00    -0.297 N 
ATOM     56  H   ARG A   8      -0.090   6.965  16.483  0.00  0.00    +0.150 HD
BRANCH  55  57
ATOM     57  CA  ARG A   8      -0.666   8.760  17.545  0.00  0.00    +0.149 C 
BRANCH  57  58
ATOM     58  C   ARG A   8      -1.886   9.618  17.233  0.00  0.00    +0.241 C 
ATOM     59  O   ARG A   8      -2.150  10.588  17.932  0.00  0.00    -0.273 OA
ATOM     60  N   ASN A   9      -2.631   9.277  16.189  0.00  0.00    -0.298 N 
ATOM     61  H   ASN A   9      -2.371   8.457  15.605  0.00  0.00    +0.150 HD
BRANCH  60  62
ATOM     62  CA  ASN A   9      -3.812  10.059  15.870  0.00  0.00    +0.146 C 
BRANCH  62  63
ATOM     63  C   ASN A   9      -4.773  10.087  17.064  0.00  0.00    +0.227 C 
ATOM     64  O   ASN A   9      -5.385  11.112  17.345  0.00  0.00    -0.286 OA
ENDBRANCH  62  63
BRANCH  62  65
ATOM     65  CB  ASN A   9      -4.509   9.508  14.609  0.00  0.00    +0.112 C 
BRANCH  65  66
ATOM     66  CG  ASN A   9      -5.068   8.106  14.795  0.00  0.00    +0.222 C 
ATOM     67  OD1 ASN A   9      -4.349   7.171  15.159  0.00  0.00    -0.275 OA
ATOM     68  ND2 ASN A   9      -6.358   7.950  14.522  0.00  0.00    -0.329 N 
ATOM     69 HD21 ASN A   9      -6.799   7.012  14.612  0.00  0.00    +0.145 HD
ATOM     70 HD22 ASN A   9      -6.928   8.765  14.218  0.00  0.00    +0.145 HD
ENDBRANCH  65  66
ENDBRANCH  62  65
ENDBRANCH  60  62
ENDBRANCH  57  58
BRANCH  57  71
ATOM     71  CB  ARG A   8       0.585   9.387  16.912  0.00  0.00    +0.033 C 
BRANCH  71  72
ATOM     72  CG  ARG A   8       1.885   8.885  17.525  0.00  0.00    +0.045 C 
BRANCH  72  73
ATOM     73  CD  ARG A   8       3.105   9.624  16.990  0.00  0.00    +0.174 C 
BRANCH  73  74
ATOM     74  NE  ARG A   8       3.242   9.505  15.538  0.00  0.00    -0.265 N 
ATOM     75  HE  ARG A   8       3.630   8.617  15.160  0.00  0.00    +0.259 HD
ATOM     76  CZ  ARG A   8       2.905  10.454  14.668  0.00  0.00    +0.342 C 
ATOM     77  NH2 ARG A   8       2.406  11.615  15.092  0.00  0.00    -0.292 N 
ATOM     78 HH21 ARG A   8       2.277  11.785  16.110  0.00  0.00    +0.255 HD
ATOM     79 HH22 ARG A   8       2.145  12.351  14.405  0.00  0.00    +0.255 HD
ATOM     80  NH1 ARG A   8       3.056  10.235  13.370  0.00  0.00    -0.292 N 
ATOM     81 HH11 ARG A   8       3.436   9.326  13.037  0.00  0.00    +0.255 HD
ATOM     82 HH12 ARG A   8       2.795  10.972  12.684  0.00  0.00    +0.255 HD
ENDBRANCH  73  74
ENDBRANCH  72  73
ENDBRANCH  71  72
ENDBRANCH  57  71
ENDBRANCH  55  57
ENDBRANCH  52  53
ENDBRANCH  50  52
ENDBRANCH  47  48
BRANCH  47  83
ATOM     83  CB  ILE A   6      -4.199   3.044  20.620  0.00  0.00    +0.027 C 
ATOM     84  CG2 ILE A   6      -4.768   4.454  20.634  0.00  0.00    +0.002 C 
BRANCH  83  85
ATOM     85  CG1 ILE A   6      -5.227   2.022  21.123  0.00  0.00    +0.002 C 
ATOM     86  CD1 ILE A   6      -6.476   1.917  20.262  0.00  0.00    +0.000 C 
ENDBRANCH  83  85
ENDBRANCH  47  83
ENDBRANCH   2  47
TORSDOF 32
REMARK  Name = ../refined-set-2016/1k6c/1k6c_pocket.pdb
REMARK  240 active torsions:
REMARK  status: ('A' for Active; 'I' for Inactive)
REMARK    1  A    between atoms: _1  and  _3
REMARK    2  A    between atoms: _3  and  _4
REMARK    3  A    between atoms: _3  and  _6
REMARK    4  A    between atoms: _6  and  _7
REMARK    5  A    between atoms: _7  and  _8
REMARK    6  A    between atoms: _8  and  _9
REMARK    7  A    between atoms: _18  and  _20
REMARK    8  A    between atoms: _20  and  _21
REMARK    9  A    between atoms: _20  and  _23
REMARK   10  A    between atoms: _23  and  _24
REMARK   11  A    between atoms: _27  and  _29
REMARK   12  A    between atoms: _29  and  _30
REMARK   13  A    between atoms: _29  and  _32
REMARK   14  A    between atoms: _32  and  _33
REMARK   15  A    between atoms: _36  and  _38
REMARK   16  A    between atoms: _38  and  _39
REMARK   17  A    between atoms: _38  and  _41
REMARK   18  A    between atoms: _41  and  _42
REMARK   19  A    between atoms: _45  and  _47
REMARK   20  A    between atoms: _47  and  _48
REMARK   21  A    between atoms: _47  and  _50
REMARK   22  A    between atoms: _50  and  _51
REMARK   23  A    between atoms: _54  and  _56
REMARK   24  A    between atoms: _56  and  _57
REMARK   25  A    between atoms: _56  and  _59
REMARK   26  A    between atoms: _59  and  _60
REMARK   27  A    between atoms: _63  and  _65
REMARK   28  A    between atoms: _65  and  _66
REMARK   29  A    between atoms: _68  and  _70
REMARK   30  A    between atoms: _70  and  _71
REMARK   31  A    between atoms: _74  and  _76
REMARK   32  A    between atoms: _76  and  _77
REMARK   33  A    between atoms: _76  and  _79
REMARK   34  A    between atoms: _79  and  _80
REMARK   35  A    between atoms: _83  and  _85
REMARK   36  A    between atoms: _85  and  _86
REMARK   37  A    between atoms: _85  and  _88
REMARK   38  A    between atoms: _88  and  _89
REMARK   39  A    between atoms: _92  and  _94
REMARK   40  A    between atoms: _94  and  _95
REMARK   41  A    between atoms: _94  and  _97
REMARK   42  A    between atoms: _97  and  _98
REMARK   43  A    between atoms: _101  and  _103
REMARK   44  A    between atoms: _103  and  _104
REMARK   45  A    between atoms: _103  and  _106
REMARK   46  A    between atoms: _109  and  _111
REMARK   47  A    between atoms: _111  and  _112
REMARK   48  A    between atoms: _111  and  _114
REMARK   49  A    between atoms: _114  and  _115
REMARK   50  A    between atoms: _118  and  _120
REMARK   51  A    between atoms: _120  and  _121
REMARK   52  A    between atoms: _120  and  _123
REMARK   53  A    between atoms: _123  and  _124
REMARK   54  A    between atoms: _124  and  _125
REMARK   55  A    between atoms: _125  and  _126
REMARK   56  A    between atoms: _126  and  _127
REMARK   57  A    between atoms: _131  and  _133
REMARK   58  A    between atoms: _133  and  _134
REMARK   59  A    between atoms: _133  and  _136
REMARK   60  A    between atoms: _136  and  _137
REMARK   61  A    between atoms: _137  and  _138
REMARK   62  A    between atoms: _140  and  _142
REMARK   63  A    between atoms: _142  and  _143
REMARK   64  A    between atoms: _142  and  _145
REMARK   65  A    between atoms: _145  and  _146
REMARK   66  A    between atoms: _149  and  _151
REMARK   67  A    between atoms: _151  and  _152
REMARK   68  A    between atoms: _154  and  _156
REMARK   69  A    between atoms: _156  and  _157
REMARK   70  A    between atoms: _159  and  _161
REMARK   71  A    between atoms: _161  and  _162
REMARK   72  A    between atoms: _161  and  _164
REMARK   73  A    between atoms: _164  and  _165
REMARK   74  A    between atoms: _168  and  _170
REMARK   75  A    between atoms: _170  and  _171
REMARK   76  A    between atoms: _173  and  _175
REMARK   77  A    between atoms: _175  and  _176
REMARK   78  A    between atoms: _178  and  _180
REMARK   79  A    between atoms: _180  and  _181
REMARK   80  A    between atoms: _180  and  _183
REMARK   81  A    between atoms: _183  and  _184
REMARK   82  A    between atoms: _190  and  _192
REMARK   83  A    between atoms: _192  and  _193
REMARK   84  A    between atoms: _192  and  _195
REMARK   85  A    between atoms: _195  and  _196
REMARK   86  A    between atoms: _199  and  _201
REMARK   87  A    between atoms: _201  and  _202
REMARK   88  A    between atoms: _201  and  _204
REMARK   89  A    between atoms: _207  and  _209
REMARK   90  A    between atoms: _209  and  _210
REMARK   91  A    between atoms: _209  and  _212
REMARK   92  A    between atoms: _212  and  _213
REMARK   93  A    between atoms: _216  and  _218
REMARK   94  A    between atoms: _218  and  _219
REMARK   95  A    between atoms: _218  and  _221
REMARK   96  A    between atoms: _221  and  _222
REMARK   97  A    between atoms: _226  and  _227
REMARK   98  A    between atoms: _232  and  _234
REMARK   99  A    between atoms: _234  and  _235
REMARK  100  A    between atoms: _234  and  _237
REMARK  101  A    between atoms: _237  and  _238
REMARK  102  A    between atoms: _241  and  _243
REMARK  103  A    between atoms: _243  and  _244
REMARK  104  A    between atoms: _243  and  _246
REMARK  105  A    between atoms: _246  and  _247
REMARK  106  A    between atoms: _252  and  _254
REMARK  107  A    between atoms: _254  and  _255
REMARK  108  A    between atoms: _254  and  _257
REMARK  109  A    between atoms: _260  and  _262
REMARK  110  A    between atoms: _262  and  _263
REMARK  111  A    between atoms: _262  and  _265
REMARK  112  A    between atoms: _265  and  _266
REMARK  113  A    between atoms: _269  and  _271
REMARK  114  A    between atoms: _271  and  _272
REMARK  115  A    between atoms: _274  and  _276
REMARK  116  A    between atoms: _276  and  _277
REMARK  117  A    between atoms: _276  and  _279
REMARK  118  A    between atoms: _279  and  _280
REMARK  119  A    between atoms: _280  and  _281
REMARK  120  A    between atoms: _281  and  _282
REMARK  121  A    between atoms: _291  and  _293
REMARK  122  A    between atoms: _293  and  _294
REMARK  123  A    between atoms: _293  and  _296
REMARK  124  A    between atoms: _296  and  _297
REMARK  125  A    between atoms: _297  and  _298
REMARK  126  A    between atoms: _298  and  _299
REMARK  127  A    between atoms: _308  and  _310
REMARK  128  A    between atoms: _310  and  _311
REMARK  129  A    between atoms: _310  and  _313
REMARK  130  A    between atoms: _313  and  _314
REMARK  131  A    between atoms: _317  and  _319
REMARK  132  A    between atoms: _319  and  _320
REMARK  133  A    between atoms: _319  and  _322
REMARK  134  A    between atoms: _322  and  _323
REMARK  135  A    between atoms: _326  and  _328
REMARK  136  A    between atoms: _328  and  _329
REMARK  137  A    between atoms: _328  and  _331
REMARK  138  A    between atoms: _331  and  _332
REMARK  139  A    between atoms: _335  and  _337
REMARK  140  A    between atoms: _337  and  _338
REMARK  141  A    between atoms: _337  and  _340
REMARK  142  A    between atoms: _340  and  _341
REMARK  143  A    between atoms: _344  and  _346
REMARK  144  A    between atoms: _346  and  _347
REMARK  145  A    between atoms: _349  and  _351
REMARK  146  A    between atoms: _351  and  _352
REMARK  147  A    between atoms: _355  and  _357
REMARK  148  A    between atoms: _357  and  _358
REMARK  149  A    between atoms: _357  and  _360
REMARK  150  A    between atoms: _360  and  _361
REMARK  151  A    between atoms: _364  and  _366
REMARK  152  A    between atoms: _366  and  _367
REMARK  153  A    between atoms: _366  and  _369
REMARK  154  A    between atoms: _369  and  _370
REMARK  155  A    between atoms: _373  and  _375
REMARK  156  A    between atoms: _375  and  _376
REMARK  157  A    between atoms: _375  and  _378
REMARK  158  A    between atoms: _378  and  _379
REMARK  159  A    between atoms: _382  and  _384
REMARK  160  A    between atoms: _384  and  _385
REMARK  161  A    between atoms: _384  and  _387
REMARK  162  A    between atoms: _390  and  _392
REMARK  163  A    between atoms: _392  and  _393
REMARK  164  A    between atoms: _392  and  _395
REMARK  165  A    between atoms: _395  and  _396
REMARK  166  A    between atoms: _399  and  _401
REMARK  167  A    between atoms: _401  and  _402
REMARK  168  A    between atoms: _401  and  _404
REMARK  169  A    between atoms: _404  and  _405
REMARK  170  A    between atoms: _405  and  _406
REMARK  171  A    between atoms: _406  and  _407
REMARK  172  A    between atoms: _407  and  _408
REMARK  173  A    between atoms: _412  and  _414
REMARK  174  A    between atoms: _414  and  _415
REMARK  175  A    between atoms: _414  and  _417
REMARK  176  A    between atoms: _417  and  _418
REMARK  177  A    between atoms: _418  and  _419
REMARK  178  A    between atoms: _421  and  _423
REMARK  179  A    between atoms: _423  and  _424
REMARK  180  A    between atoms: _423  and  _426
REMARK  181  A    between atoms: _426  and  _427
REMARK  182  A    between atoms: _430  and  _432
REMARK  183  A    between atoms: _432  and  _433
REMARK  184  A    between atoms: _435  and  _437
REMARK  185  A    between atoms: _437  and  _438
REMARK  186  A    between atoms: _440  and  _442
REMARK  187  A    between atoms: _442  and  _443
REMARK  188  A    between atoms: _442  and  _445
REMARK  189  A    between atoms: _445  and  _446
REMARK  190  A    between atoms: _449  and  _451
REMARK  191  A    between atoms: _451  and  _452
REMARK  192  A    between atoms: _454  and  _456
REMARK  193  A    between atoms: _456  and  _457
REMARK  194  A    between atoms: _459  and  _461
REMARK  195  A    between atoms: _461  and  _462
REMARK  196  A    between atoms: _461  and  _464
REMARK  197  A    between atoms: _464  and  _465
REMARK  198  A    between atoms: _471  and  _473
REMARK  199  A    between atoms: _473  and  _474
REMARK  200  A    between atoms: _473  and  _476
REMARK  201  A    between atoms: _476  and  _477
REMARK  202  A    between atoms: _480  and  _482
REMARK  203  A    between atoms: _482  and  _483
REMARK  204  A    between atoms: _482  and  _485
REMARK  205  A    between atoms: _488  and  _490
REMARK  206  A    between atoms: _490  and  _491
REMARK  207  A    between atoms: _490  and  _493
REMARK  208  A    between atoms: _493  and  _494
REMARK  209  A    between atoms: _497  and  _499
REMARK  210  A    between atoms: _499  and  _500
REMARK  211  A    between atoms: _499  and  _502
REMARK  212  A    between atoms: _502  and  _503
REMARK  213  A    between atoms: _507  and  _508
REMARK  214  A    between atoms: _513  and  _515
REMARK  215  A    between atoms: _515  and  _516
REMARK  216  A    between atoms: _515  and  _518
REMARK  217  A    between atoms: _518  and  _519
REMARK  218  A    between atoms: _522  and  _524
REMARK  219  A    between atoms: _524  and  _525
REMARK  220  A    between atoms: _524  and  _527
REMARK  221  A    between atoms: _527  and  _528
REMARK  222  A    between atoms: _533  and  _535
REMARK  223  A    between atoms: _535  and  _536
REMARK  224  A    between atoms: _535  and  _538
REMARK  225  A    between atoms: _541  and  _543
REMARK  226  A    between atoms: _543  and  _544
REMARK  227  A    between atoms: _543  and  _546
REMARK  228  A    between atoms: _546  and  _547
REMARK  229  A    between atoms: _550  and  _552
REMARK  230  A    between atoms: _552  and  _553
REMARK  231  A    between atoms: _555  and  _557
REMARK  232  A    between atoms: _557  and  _558
REMARK  233  A    between atoms: _557  and  _560
REMARK  234  A    between atoms: _560  and  _561
REMARK  235  A    between atoms: _561  and  _562
REMARK  236  A    between atoms: _562  and  _563
REMARK  237  A    between atoms: _572  and  _574
REMARK  238  A    between atoms: _574  and  _575
REMARK  239  A    between atoms: _574  and  _577
REMARK  240  A    between atoms: _577  and  _578
REMARK                            x       y       z     vdW  Elec       q    Type
REMARK                         _______ _______ _______ _____ _____    ______ ____
ROOT
ATOM      1  O   HOH     1       5.397  -3.261  23.219  0.00  0.00    +0.000 OA
ENDROOT
TORSDOF 0
REMARK  Name = ../refined-set-2016/1k6c/1k6c_pocket.pdb
REMARK  240 active torsions:
REMARK  status: ('A' for Active; 'I' for Inactive)
REMARK    1  A    between atoms: _1  and  _3
REMARK    2  A    between atoms: _3  and  _4
REMARK    3  A    between atoms: _3  and  _6
REMARK    4  A    between atoms: _6  and  _7
REMARK    5  A    between atoms: _7  and  _8
REMARK    6  A    between atoms: _8  and  _9
REMARK    7  A    between atoms: _18  and  _20
REMARK    8  A    between atoms: _20  and  _21
REMARK    9  A    between atoms: _20  and  _23
REMARK   10  A    between atoms: _23  and  _24
REMARK   11  A    between atoms: _27  and  _29
REMARK   12  A    between atoms: _29  and  _30
REMARK   13  A    between atoms: _29  and  _32
REMARK   14  A    between atoms: _32  and  _33
REMARK   15  A    between atoms: _36  and  _38
REMARK   16  A    between atoms: _38  and  _39
REMARK   17  A    between atoms: _38  and  _41
REMARK   18  A    between atoms: _41  and  _42
REMARK   19  A    between atoms: _45  and  _47
REMARK   20  A    between atoms: _47  and  _48
REMARK   21  A    between atoms: _47  and  _50
REMARK   22  A    between atoms: _50  and  _51
REMARK   23  A    between atoms: _54  and  _56
REMARK   24  A    between atoms: _56  and  _57
REMARK   25  A    between atoms: _56  and  _59
REMARK   26  A    between atoms: _59  and  _60
REMARK   27  A    between atoms: _63  and  _65
REMARK   28  A    between atoms: _65  and  _66
REMARK   29  A    between atoms: _68  and  _70
REMARK   30  A    between atoms: _70  and  _71
REMARK   31  A    between atoms: _74  and  _76
REMARK   32  A    between atoms: _76  and  _77
REMARK   33  A    between atoms: _76  and  _79
REMARK   34  A    between atoms: _79  and  _80
REMARK   35  A    between atoms: _83  and  _85
REMARK   36  A    between atoms: _85  and  _86
REMARK   37  A    between atoms: _85  and  _88
REMARK   38  A    between atoms: _88  and  _89
REMARK   39  A    between atoms: _92  and  _94
REMARK   40  A    between atoms: _94  and  _95
REMARK   41  A    between atoms: _94  and  _97
REMARK   42  A    between atoms: _97  and  _98
REMARK   43  A    between atoms: _101  and  _103
REMARK   44  A    between atoms: _103  and  _104
REMARK   45  A    between atoms: _103  and  _106
REMARK   46  A    between atoms: _109  and  _111
REMARK   47  A    between atoms: _111  and  _112
REMARK   48  A    between atoms: _111  and  _114
REMARK   49  A    between atoms: _114  and  _115
REMARK   50  A    between atoms: _118  and  _120
REMARK   51  A    between atoms: _120  and  _121
REMARK   52  A    between atoms: _120  and  _123
REMARK   53  A    between atoms: _123  and  _124
REMARK   54  A    between atoms: _124  and  _125
REMARK   55  A    between atoms: _125  and  _126
REMARK   56  A    between atoms: _126  and  _127
REMARK   57  A    between atoms: _131  and  _133
REMARK   58  A    between atoms: _133  and  _134
REMARK   59  A    between atoms: _133  and  _136
REMARK   60  A    between atoms: _136  and  _137
REMARK   61  A    between atoms: _137  and  _138
REMARK   62  A    between atoms: _140  and  _142
REMARK   63  A    between atoms: _142  and  _143
REMARK   64  A    between atoms: _142  and  _145
REMARK   65  A    between atoms: _145  and  _146
REMARK   66  A    between atoms: _149  and  _151
REMARK   67  A    between atoms: _151  and  _152
REMARK   68  A    between atoms: _154  and  _156
REMARK   69  A    between atoms: _156  and  _157
REMARK   70  A    between atoms: _159  and  _161
REMARK   71  A    between atoms: _161  and  _162
REMARK   72  A    between atoms: _161  and  _164
REMARK   73  A    between atoms: _164  and  _165
REMARK   74  A    between atoms: _168  and  _170
REMARK   75  A    between atoms: _170  and  _171
REMARK   76  A    between atoms: _173  and  _175
REMARK   77  A    between atoms: _175  and  _176
REMARK   78  A    between atoms: _178  and  _180
REMARK   79  A    between atoms: _180  and  _181
REMARK   80  A    between atoms: _180  and  _183
REMARK   81  A    between atoms: _183  and  _184
REMARK   82  A    between atoms: _190  and  _192
REMARK   83  A    between atoms: _192  and  _193
REMARK   84  A    between atoms: _192  and  _195
REMARK   85  A    between atoms: _195  and  _196
REMARK   86  A    between atoms: _199  and  _201
REMARK   87  A    between atoms: _201  and  _202
REMARK   88  A    between atoms: _201  and  _204
REMARK   89  A    between atoms: _207  and  _209
REMARK   90  A    between atoms: _209  and  _210
REMARK   91  A    between atoms: _209  and  _212
REMARK   92  A    between atoms: _212  and  _213
REMARK   93  A    between atoms: _216  and  _218
REMARK   94  A    between atoms: _218  and  _219
REMARK   95  A    between atoms: _218  and  _221
REMARK   96  A    between atoms: _221  and  _222
REMARK   97  A    between atoms: _226  and  _227
REMARK   98  A    between atoms: _232  and  _234
REMARK   99  A    between atoms: _234  and  _235
REMARK  100  A    between atoms: _234  and  _237
REMARK  101  A    between atoms: _237  and  _238
REMARK  102  A    between atoms: _241  and  _243
REMARK  103  A    between atoms: _243  and  _244
REMARK  104  A    between atoms: _243  and  _246
REMARK  105  A    between atoms: _246  and  _247
REMARK  106  A    between atoms: _252  and  _254
REMARK  107  A    between atoms: _254  and  _255
REMARK  108  A    between atoms: _254  and  _257
REMARK  109  A    between atoms: _260  and  _262
REMARK  110  A    between atoms: _262  and  _263
REMARK  111  A    between atoms: _262  and  _265
REMARK  112  A    between atoms: _265  and  _266
REMARK  113  A    between atoms: _269  and  _271
REMARK  114  A    between atoms: _271  and  _272
REMARK  115  A    between atoms: _274  and  _276
REMARK  116  A    between atoms: _276  and  _277
REMARK  117  A    between atoms: _276  and  _279
REMARK  118  A    between atoms: _279  and  _280
REMARK  119  A    between atoms: _280  and  _281
REMARK  120  A    between atoms: _281  and  _282
REMARK  121  A    between atoms: _291  and  _293
REMARK  122  A    between atoms: _293  and  _294
REMARK  123  A    between atoms: _293  and  _296
REMARK  124  A    between atoms: _296  and  _297
REMARK  125  A    between atoms: _297  and  _298
REMARK  126  A    between atoms: _298  and  _299
REMARK  127  A    between atoms: _308  and  _310
REMARK  128  A    between atoms: _310  and  _311
REMARK  129  A    between atoms: _310  and  _313
REMARK  130  A    between atoms: _313  and  _314
REMARK  131  A    between atoms: _317  and  _319
REMARK  132  A    between atoms: _319  and  _320
REMARK  133  A    between atoms: _319  and  _322
REMARK  134  A    between atoms: _322  and  _323
REMARK  135  A    between atoms: _326  and  _328
REMARK  136  A    between atoms: _328  and  _329
REMARK  137  A    between atoms: _328  and  _331
REMARK  138  A    between atoms: _331  and  _332
REMARK  139  A    between atoms: _335  and  _337
REMARK  140  A    between atoms: _337  and  _338
REMARK  141  A    between atoms: _337  and  _340
REMARK  142  A    between atoms: _340  and  _341
REMARK  143  A    between atoms: _344  and  _346
REMARK  144  A    between atoms: _346  and  _347
REMARK  145  A    between atoms: _349  and  _351
REMARK  146  A    between atoms: _351  and  _352
REMARK  147  A    between atoms: _355  and  _357
REMARK  148  A    between atoms: _357  and  _358
REMARK  149  A    between atoms: _357  and  _360
REMARK  150  A    between atoms: _360  and  _361
REMARK  151  A    between atoms: _364  and  _366
REMARK  152  A    between atoms: _366  and  _367
REMARK  153  A    between atoms: _366  and  _369
REMARK  154  A    between atoms: _369  and  _370
REMARK  155  A    between atoms: _373  and  _375
REMARK  156  A    between atoms: _375  and  _376
REMARK  157  A    between atoms: _375  and  _378
REMARK  158  A    between atoms: _378  and  _379
REMARK  159  A    between atoms: _382  and  _384
REMARK  160  A    between atoms: _384  and  _385
REMARK  161  A    between atoms: _384  and  _387
REMARK  162  A    between atoms: _390  and  _392
REMARK  163  A    between atoms: _392  and  _393
REMARK  164  A    between atoms: _392  and  _395
REMARK  165  A    between atoms: _395  and  _396
REMARK  166  A    between atoms: _399  and  _401
REMARK  167  A    between atoms: _401  and  _402
REMARK  168  A    between atoms: _401  and  _404
REMARK  169  A    between atoms: _404  and  _405
REMARK  170  A    between atoms: _405  and  _406
REMARK  171  A    between atoms: _406  and  _407
REMARK  172  A    between atoms: _407  and  _408
REMARK  173  A    between atoms: _412  and  _414
REMARK  174  A    between atoms: _414  and  _415
REMARK  175  A    between atoms: _414  and  _417
REMARK  176  A    between atoms: _417  and  _418
REMARK  177  A    between atoms: _418  and  _419
REMARK  178  A    between atoms: _421  and  _423
REMARK  179  A    between atoms: _423  and  _424
REMARK  180  A    between atoms: _423  and  _426
REMARK  181  A    between atoms: _426  and  _427
REMARK  182  A    between atoms: _430  and  _432
REMARK  183  A    between atoms: _432  and  _433
REMARK  184  A    between atoms: _435  and  _437
REMARK  185  A    between atoms: _437  and  _438
REMARK  186  A    between atoms: _440  and  _442
REMARK  187  A    between atoms: _442  and  _443
REMARK  188  A    between atoms: _442  and  _445
REMARK  189  A    between atoms: _445  and  _446
REMARK  190  A    between atoms: _449  and  _451
REMARK  191  A    between atoms: _451  and  _452
REMARK  192  A    between atoms: _454  and  _456
REMARK  193  A    between atoms: _456  and  _457
REMARK  194  A    between atoms: _459  and  _461
REMARK  195  A    between atoms: _461  and  _462
REMARK  196  A    between atoms: _461  and  _464
REMARK  197  A    between atoms: _464  and  _465
REMARK  198  A    between atoms: _471  and  _473
REMARK  199  A    between atoms: _473  and  _474
REMARK  200  A    between atoms: _473  and  _476
REMARK  201  A    between atoms: _476  and  _477
REMARK  202  A    between atoms: _480  and  _482
REMARK  203  A    between atoms: _482  and  _483
REMARK  204  A    between atoms: _482  and  _485
REMARK  205  A    between atoms: _488  and  _490
REMARK  206  A    between atoms: _490  and  _491
REMARK  207  A    between atoms: _490  and  _493
REMARK  208  A    between atoms: _493  and  _494
REMARK  209  A    between atoms: _497  and  _499
REMARK  210  A    between atoms: _499  and  _500
REMARK  211  A    between atoms: _499  and  _502
REMARK  212  A    between atoms: _502  and  _503
REMARK  213  A    between atoms: _507  and  _508
REMARK  214  A    between atoms: _513  and  _515
REMARK  215  A    between atoms: _515  and  _516
REMARK  216  A    between atoms: _515  and  _518
REMARK  217  A    between atoms: _518  and  _519
REMARK  218  A    between atoms: _522  and  _524
REMARK  219  A    between atoms: _524  and  _525
REMARK  220  A    between atoms: _524  and  _527
REMARK  221  A    between atoms: _527  and  _528
REMARK  222  A    between atoms: _533  and  _535
REMARK  223  A    between atoms: _535  and  _536
REMARK  224  A    between atoms: _535  and  _538
REMARK  225  A    between atoms: _541  and  _543
REMARK  226  A    between atoms: _543  and  _544
REMARK  227  A    between atoms: _543  and  _546
REMARK  228  A    between atoms: _546  and  _547
REMARK  229  A    between atoms: _550  and  _552
REMARK  230  A    between atoms: _552  and  _553
REMARK  231  A    between atoms: _555  and  _557
REMARK  232  A    between atoms: _557  and  _558
REMARK  233  A    between atoms: _557  and  _560
REMARK  234  A    between atoms: _560  and  _561
REMARK  235  A    between atoms: _561  and  _562
REMARK  236  A    between atoms: _562  and  _563
REMARK  237  A    between atoms: _572  and  _574
REMARK  238  A    between atoms: _574  and  _575
REMARK  239  A    between atoms: _574  and  _577
REMARK  240  A    between atoms: _577  and  _578
REMARK                            x       y       z     vdW  Elec       q    Type
REMARK                         _______ _______ _______ _____ _____    ______ ____
ROOT
ATOM      1  O   HOH     1       8.199 -11.348  16.668  0.00  0.00    +0.000 OA
ENDROOT
TORSDOF 0
REMARK  Name = ../refined-set-2016/1k6c/1k6c_pocket.pdb
REMARK  240 active torsions:
REMARK  status: ('A' for Active; 'I' for Inactive)
REMARK    1  A    between atoms: _1  and  _3
REMARK    2  A    between atoms: _3  and  _4
REMARK    3  A    between atoms: _3  and  _6
REMARK    4  A    between atoms: _6  and  _7
REMARK    5  A    between atoms: _7  and  _8
REMARK    6  A    between atoms: _8  and  _9
REMARK    7  A    between atoms: _18  and  _20
REMARK    8  A    between atoms: _20  and  _21
REMARK    9  A    between atoms: _20  and  _23
REMARK   10  A    between atoms: _23  and  _24
REMARK   11  A    between atoms: _27  and  _29
REMARK   12  A    between atoms: _29  and  _30
REMARK   13  A    between atoms: _29  and  _32
REMARK   14  A    between atoms: _32  and  _33
REMARK   15  A    between atoms: _36  and  _38
REMARK   16  A    between atoms: _38  and  _39
REMARK   17  A    between atoms: _38  and  _41
REMARK   18  A    between atoms: _41  and  _42
REMARK   19  A    between atoms: _45  and  _47
REMARK   20  A    between atoms: _47  and  _48
REMARK   21  A    between atoms: _47  and  _50
REMARK   22  A    between atoms: _50  and  _51
REMARK   23  A    between atoms: _54  and  _56
REMARK   24  A    between atoms: _56  and  _57
REMARK   25  A    between atoms: _56  and  _59
REMARK   26  A    between atoms: _59  and  _60
REMARK   27  A    between atoms: _63  and  _65
REMARK   28  A    between atoms: _65  and  _66
REMARK   29  A    between atoms: _68  and  _70
REMARK   30  A    between atoms: _70  and  _71
REMARK   31  A    between atoms: _74  and  _76
REMARK   32  A    between atoms: _76  and  _77
REMARK   33  A    between atoms: _76  and  _79
REMARK   34  A    between atoms: _79  and  _80
REMARK   35  A    between atoms: _83  and  _85
REMARK   36  A    between atoms: _85  and  _86
REMARK   37  A    between atoms: _85  and  _88
REMARK   38  A    between atoms: _88  and  _89
REMARK   39  A    between atoms: _92  and  _94
REMARK   40  A    between atoms: _94  and  _95
REMARK   41  A    between atoms: _94  and  _97
REMARK   42  A    between atoms: _97  and  _98
REMARK   43  A    between atoms: _101  and  _103
REMARK   44  A    between atoms: _103  and  _104
REMARK   45  A    between atoms: _103  and  _106
REMARK   46  A    between atoms: _109  and  _111
REMARK   47  A    between atoms: _111  and  _112
REMARK   48  A    between atoms: _111  and  _114
REMARK   49  A    between atoms: _114  and  _115
REMARK   50  A    between atoms: _118  and  _120
REMARK   51  A    between atoms: _120  and  _121
REMARK   52  A    between atoms: _120  and  _123
REMARK   53  A    between atoms: _123  and  _124
REMARK   54  A    between atoms: _124  and  _125
REMARK   55  A    between atoms: _125  and  _126
REMARK   56  A    between atoms: _126  and  _127
REMARK   57  A    between atoms: _131  and  _133
REMARK   58  A    between atoms: _133  and  _134
REMARK   59  A    between atoms: _133  and  _136
REMARK   60  A    between atoms: _136  and  _137
REMARK   61  A    between atoms: _137  and  _138
REMARK   62  A    between atoms: _140  and  _142
REMARK   63  A    between atoms: _142  and  _143
REMARK   64  A    between atoms: _142  and  _145
REMARK   65  A    between atoms: _145  and  _146
REMARK   66  A    between atoms: _149  and  _151
REMARK   67  A    between atoms: _151  and  _152
REMARK   68  A    between atoms: _154  and  _156
REMARK   69  A    between atoms: _156  and  _157
REMARK   70  A    between atoms: _159  and  _161
REMARK   71  A    between atoms: _161  and  _162
REMARK   72  A    between atoms: _161  and  _164
REMARK   73  A    between atoms: _164  and  _165
REMARK   74  A    between atoms: _168  and  _170
REMARK   75  A    between atoms: _170  and  _171
REMARK   76  A    between atoms: _173  and  _175
REMARK   77  A    between atoms: _175  and  _176
REMARK   78  A    between atoms: _178  and  _180
REMARK   79  A    between atoms: _180  and  _181
REMARK   80  A    between atoms: _180  and  _183
REMARK   81  A    between atoms: _183  and  _184
REMARK   82  A    between atoms: _190  and  _192
REMARK   83  A    between atoms: _192  and  _193
REMARK   84  A    between atoms: _192  and  _195
REMARK   85  A    between atoms: _195  and  _196
REMARK   86  A    between atoms: _199  and  _201
REMARK   87  A    between atoms: _201  and  _202
REMARK   88  A    between atoms: _201  and  _204
REMARK   89  A    between atoms: _207  and  _209
REMARK   90  A    between atoms: _209  and  _210
REMARK   91  A    between atoms: _209  and  _212
REMARK   92  A    between atoms: _212  and  _213
REMARK   93  A    between atoms: _216  and  _218
REMARK   94  A    between atoms: _218  and  _219
REMARK   95  A    between atoms: _218  and  _221
REMARK   96  A    between atoms: _221  and  _222
REMARK   97  A    between atoms: _226  and  _227
REMARK   98  A    between atoms: _232  and  _234
REMARK   99  A    between atoms: _234  and  _235
REMARK  100  A    between atoms: _234  and  _237
REMARK  101  A    between atoms: _237  and  _238
REMARK  102  A    between atoms: _241  and  _243
REMARK  103  A    between atoms: _243  and  _244
REMARK  104  A    between atoms: _243  and  _246
REMARK  105  A    between atoms: _246  and  _247
REMARK  106  A    between atoms: _252  and  _254
REMARK  107  A    between atoms: _254  and  _255
REMARK  108  A    between atoms: _254  and  _257
REMARK  109  A    between atoms: _260  and  _262
REMARK  110  A    between atoms: _262  and  _263
REMARK  111  A    between atoms: _262  and  _265
REMARK  112  A    between atoms: _265  and  _266
REMARK  113  A    between atoms: _269  and  _271
REMARK  114  A    between atoms: _271  and  _272
REMARK  115  A    between atoms: _274  and  _276
REMARK  116  A    between atoms: _276  and  _277
REMARK  117  A    between atoms: _276  and  _279
REMARK  118  A    between atoms: _279  and  _280
REMARK  119  A    between atoms: _280  and  _281
REMARK  120  A    between atoms: _281  and  _282
REMARK  121  A    between atoms: _291  and  _293
REMARK  122  A    between atoms: _293  and  _294
REMARK  123  A    between atoms: _293  and  _296
REMARK  124  A    between atoms: _296  and  _297
REMARK  125  A    between atoms: _297  and  _298
REMARK  126  A    between atoms: _298  and  _299
REMARK  127  A    between atoms: _308  and  _310
REMARK  128  A    between atoms: _310  and  _311
REMARK  129  A    between atoms: _310  and  _313
REMARK  130  A    between atoms: _313  and  _314
REMARK  131  A    between atoms: _317  and  _319
REMARK  132  A    between atoms: _319  and  _320
REMARK  133  A    between atoms: _319  and  _322
REMARK  134  A    between atoms: _322  and  _323
REMARK  135  A    between atoms: _326  and  _328
REMARK  136  A    between atoms: _328  and  _329
REMARK  137  A    between atoms: _328  and  _331
REMARK  138  A    between atoms: _331  and  _332
REMARK  139  A    between atoms: _335  and  _337
REMARK  140  A    between atoms: _337  and  _338
REMARK  141  A    between atoms: _337  and  _340
REMARK  142  A    between atoms: _340  and  _341
REMARK  143  A    between atoms: _344  and  _346
REMARK  144  A    between atoms: _346  and  _347
REMARK  145  A    between atoms: _349  and  _351
REMARK  146  A    between atoms: _351  and  _352
REMARK  147  A    between atoms: _355  and  _357
REMARK  148  A    between atoms: _357  and  _358
REMARK  149  A    between atoms: _357  and  _360
REMARK  150  A    between atoms: _360  and  _361
REMARK  151  A    between atoms: _364  and  _366
REMARK  152  A    between atoms: _366  and  _367
REMARK  153  A    between atoms: _366  and  _369
REMARK  154  A    between atoms: _369  and  _370
REMARK  155  A    between atoms: _373  and  _375
REMARK  156  A    between atoms: _375  and  _376
REMARK  157  A    between atoms: _375  and  _378
REMARK  158  A    between atoms: _378  and  _379
REMARK  159  A    between atoms: _382  and  _384
REMARK  160  A    between atoms: _384  and  _385
REMARK  161  A    between atoms: _384  and  _387
REMARK  162  A    between atoms: _390  and  _392
REMARK  163  A    between atoms: _392  and  _393
REMARK  164  A    between atoms: _392  and  _395
REMARK  165  A    between atoms: _395  and  _396
REMARK  166  A    between atoms: _399  and  _401
REMARK  167  A    between atoms: _401  and  _402
REMARK  168  A    between atoms: _401  and  _404
REMARK  169  A    between atoms: _404  and  _405
REMARK  170  A    between atoms: _405  and  _406
REMARK  171  A    between atoms: _406  and  _407
REMARK  172  A    between atoms: _407  and  _408
REMARK  173  A    between atoms: _412  and  _414
REMARK  174  A    between atoms: _414  and  _415
REMARK  175  A    between atoms: _414  and  _417
REMARK  176  A    between atoms: _417  and  _418
REMARK  177  A    between atoms: _418  and  _419
REMARK  178  A    between atoms: _421  and  _423
REMARK  179  A    between atoms: _423  and  _424
REMARK  180  A    between atoms: _423  and  _426
REMARK  181  A    between atoms: _426  and  _427
REMARK  182  A    between atoms: _430  and  _432
REMARK  183  A    between atoms: _432  and  _433
REMARK  184  A    between atoms: _435  and  _437
REMARK  185  A    between atoms: _437  and  _438
REMARK  186  A    between atoms: _440  and  _442
REMARK  187  A    between atoms: _442  and  _443
REMARK  188  A    between atoms: _442  and  _445
REMARK  189  A    between atoms: _445  and  _446
REMARK  190  A    between atoms: _449  and  _451
REMARK  191  A    between atoms: _451  and  _452
REMARK  192  A    between atoms: _454  and  _456
REMARK  193  A    between atoms: _456  and  _457
REMARK  194  A    between atoms: _459  and  _461
REMARK  195  A    between atoms: _461  and  _462
REMARK  196  A    between atoms: _461  and  _464
REMARK  197  A    between atoms: _464  and  _465
REMARK  198  A    between atoms: _471  and  _473
REMARK  199  A    between atoms: _473  and  _474
REMARK  200  A    between atoms: _473  and  _476
REMARK  201  A    between atoms: _476  and  _477
REMARK  202  A    between atoms: _480  and  _482
REMARK  203  A    between atoms: _482  and  _483
REMARK  204  A    between atoms: _482  and  _485
REMARK  205  A    between atoms: _488  and  _490
REMARK  206  A    between atoms: _490  and  _491
REMARK  207  A    between atoms: _490  and  _493
REMARK  208  A    between atoms: _493  and  _494
REMARK  209  A    between atoms: _497  and  _499
REMARK  210  A    between atoms: _499  and  _500
REMARK  211  A    between atoms: _499  and  _502
REMARK  212  A    between atoms: _502  and  _503
REMARK  213  A    between atoms: _507  and  _508
REMARK  214  A    between atoms: _513  and  _515
REMARK  215  A    between atoms: _515  and  _516
REMARK  216  A    between atoms: _515  and  _518
REMARK  217  A    between atoms: _518  and  _519
REMARK  218  A    between atoms: _522  and  _524
REMARK  219  A    between atoms: _524  and  _525
REMARK  220  A    between atoms: _524  and  _527
REMARK  221  A    between atoms: _527  and  _528
REMARK  222  A    between atoms: _533  and  _535
REMARK  223  A    between atoms: _535  and  _536
REMARK  224  A    between atoms: _535  and  _538
REMARK  225  A    between atoms: _541  and  _543
REMARK  226  A    between atoms: _543  and  _544
REMARK  227  A    between atoms: _543  and  _546
REMARK  228  A    between atoms: _546  and  _547
REMARK  229  A    between atoms: _550  and  _552
REMARK  230  A    between atoms: _552  and  _553
REMARK  231  A    between atoms: _555  and  _557
REMARK  232  A    between atoms: _557  and  _558
REMARK  233  A    between atoms: _557  and  _560
REMARK  234  A    between atoms: _560  and  _561
REMARK  235  A    between atoms: _561  and  _562
REMARK  236  A    between atoms: _562  and  _563
REMARK  237  A    between atoms: _572  and  _574
REMARK  238  A    between atoms: _574  and  _575
REMARK  239  A    between atoms: _574  and  _577
REMARK  240  A    between atoms: _577  and  _578
REMARK                            x       y       z     vdW  Elec       q    Type
REMARK                         _______ _______ _______ _____ _____    ______ ____
ROOT
ATOM      1  O   HOH     1       0.026  -8.524   8.441  0.00  0.00    +0.000 OA
ENDROOT
TORSDOF 0
REMARK  Name = ../refined-set-2016/1k6c/1k6c_pocket.pdb
REMARK  240 active torsions:
REMARK  status: ('A' for Active; 'I' for Inactive)
REMARK    1  A    between atoms: _1  and  _3
REMARK    2  A    between atoms: _3  and  _4
REMARK    3  A    between atoms: _3  and  _6
REMARK    4  A    between atoms: _6  and  _7
REMARK    5  A    between atoms: _7  and  _8
REMARK    6  A    between atoms: _8  and  _9
REMARK    7  A    between atoms: _18  and  _20
REMARK    8  A    between atoms: _20  and  _21
REMARK    9  A    between atoms: _20  and  _23
REMARK   10  A    between atoms: _23  and  _24
REMARK   11  A    between atoms: _27  and  _29
REMARK   12  A    between atoms: _29  and  _30
REMARK   13  A    between atoms: _29  and  _32
REMARK   14  A    between atoms: _32  and  _33
REMARK   15  A    between atoms: _36  and  _38
REMARK   16  A    between atoms: _38  and  _39
REMARK   17  A    between atoms: _38  and  _41
REMARK   18  A    between atoms: _41  and  _42
REMARK   19  A    between atoms: _45  and  _47
REMARK   20  A    between atoms: _47  and  _48
REMARK   21  A    between atoms: _47  and  _50
REMARK   22  A    between atoms: _50  and  _51
REMARK   23  A    between atoms: _54  and  _56
REMARK   24  A    between atoms: _56  and  _57
REMARK   25  A    between atoms: _56  and  _59
REMARK   26  A    between atoms: _59  and  _60
REMARK   27  A    between atoms: _63  and  _65
REMARK   28  A    between atoms: _65  and  _66
REMARK   29  A    between atoms: _68  and  _70
REMARK   30  A    between atoms: _70  and  _71
REMARK   31  A    between atoms: _74  and  _76
REMARK   32  A    between atoms: _76  and  _77
REMARK   33  A    between atoms: _76  and  _79
REMARK   34  A    between atoms: _79  and  _80
REMARK   35  A    between atoms: _83  and  _85
REMARK   36  A    between atoms: _85  and  _86
REMARK   37  A    between atoms: _85  and  _88
REMARK   38  A    between atoms: _88  and  _89
REMARK   39  A    between atoms: _92  and  _94
REMARK   40  A    between atoms: _94  and  _95
REMARK   41  A    between atoms: _94  and  _97
REMARK   42  A    between atoms: _97  and  _98
REMARK   43  A    between atoms: _101  and  _103
REMARK   44  A    between atoms: _103  and  _104
REMARK   45  A    between atoms: _103  and  _106
REMARK   46  A    between atoms: _109  and  _111
REMARK   47  A    between atoms: _111  and  _112
REMARK   48  A    between atoms: _111  and  _114
REMARK   49  A    between atoms: _114  and  _115
REMARK   50  A    between atoms: _118  and  _120
REMARK   51  A    between atoms: _120  and  _121
REMARK   52  A    between atoms: _120  and  _123
REMARK   53  A    between atoms: _123  and  _124
REMARK   54  A    between atoms: _124  and  _125
REMARK   55  A    between atoms: _125  and  _126
REMARK   56  A    between atoms: _126  and  _127
REMARK   57  A    between atoms: _131  and  _133
REMARK   58  A    between atoms: _133  and  _134
REMARK   59  A    between atoms: _133  and  _136
REMARK   60  A    between atoms: _136  and  _137
REMARK   61  A    between atoms: _137  and  _138
REMARK   62  A    between atoms: _140  and  _142
REMARK   63  A    between atoms: _142  and  _143
REMARK   64  A    between atoms: _142  and  _145
REMARK   65  A    between atoms: _145  and  _146
REMARK   66  A    between atoms: _149  and  _151
REMARK   67  A    between atoms: _151  and  _152
REMARK   68  A    between atoms: _154  and  _156
REMARK   69  A    between atoms: _156  and  _157
REMARK   70  A    between atoms: _159  and  _161
REMARK   71  A    between atoms: _161  and  _162
REMARK   72  A    between atoms: _161  and  _164
REMARK   73  A    between atoms: _164  and  _165
REMARK   74  A    between atoms: _168  and  _170
REMARK   75  A    between atoms: _170  and  _171
REMARK   76  A    between atoms: _173  and  _175
REMARK   77  A    between atoms: _175  and  _176
REMARK   78  A    between atoms: _178  and  _180
REMARK   79  A    between atoms: _180  and  _181
REMARK   80  A    between atoms: _180  and  _183
REMARK   81  A    between atoms: _183  and  _184
REMARK   82  A    between atoms: _190  and  _192
REMARK   83  A    between atoms: _192  and  _193
REMARK   84  A    between atoms: _192  and  _195
REMARK   85  A    between atoms: _195  and  _196
REMARK   86  A    between atoms: _199  and  _201
REMARK   87  A    between atoms: _201  and  _202
REMARK   88  A    between atoms: _201  and  _204
REMARK   89  A    between atoms: _207  and  _209
REMARK   90  A    between atoms: _209  and  _210
REMARK   91  A    between atoms: _209  and  _212
REMARK   92  A    between atoms: _212  and  _213
REMARK   93  A    between atoms: _216  and  _218
REMARK   94  A    between atoms: _218  and  _219
REMARK   95  A    between atoms: _218  and  _221
REMARK   96  A    between atoms: _221  and  _222
REMARK   97  A    between atoms: _226  and  _227
REMARK   98  A    between atoms: _232  and  _234
REMARK   99  A    between atoms: _234  and  _235
REMARK  100  A    between atoms: _234  and  _237
REMARK  101  A    between atoms: _237  and  _238
REMARK  102  A    between atoms: _241  and  _243
REMARK  103  A    between atoms: _243  and  _244
REMARK  104  A    between atoms: _243  and  _246
REMARK  105  A    between atoms: _246  and  _247
REMARK  106  A    between atoms: _252  and  _254
REMARK  107  A    between atoms: _254  and  _255
REMARK  108  A    between atoms: _254  and  _257
REMARK  109  A    between atoms: _260  and  _262
REMARK  110  A    between atoms: _262  and  _263
REMARK  111  A    between atoms: _262  and  _265
REMARK  112  A    between atoms: _265  and  _266
REMARK  113  A    between atoms: _269  and  _271
REMARK  114  A    between atoms: _271  and  _272
REMARK  115  A    between atoms: _274  and  _276
REMARK  116  A    between atoms: _276  and  _277
REMARK  117  A    between atoms: _276  and  _279
REMARK  118  A    between atoms: _279  and  _280
REMARK  119  A    between atoms: _280  and  _281
REMARK  120  A    between atoms: _281  and  _282
REMARK  121  A    between atoms: _291  and  _293
REMARK  122  A    between atoms: _293  and  _294
REMARK  123  A    between atoms: _293  and  _296
REMARK  124  A    between atoms: _296  and  _297
REMARK  125  A    between atoms: _297  and  _298
REMARK  126  A    between atoms: _298  and  _299
REMARK  127  A    between atoms: _308  and  _310
REMARK  128  A    between atoms: _310  and  _311
REMARK  129  A    between atoms: _310  and  _313
REMARK  130  A    between atoms: _313  and  _314
REMARK  131  A    between atoms: _317  and  _319
REMARK  132  A    between atoms: _319  and  _320
REMARK  133  A    between atoms: _319  and  _322
REMARK  134  A    between atoms: _322  and  _323
REMARK  135  A    between atoms: _326  and  _328
REMARK  136  A    between atoms: _328  and  _329
REMARK  137  A    between atoms: _328  and  _331
REMARK  138  A    between atoms: _331  and  _332
REMARK  139  A    between atoms: _335  and  _337
REMARK  140  A    between atoms: _337  and  _338
REMARK  141  A    between atoms: _337  and  _340
REMARK  142  A    between atoms: _340  and  _341
REMARK  143  A    between atoms: _344  and  _346
REMARK  144  A    between atoms: _346  and  _347
REMARK  145  A    between atoms: _349  and  _351
REMARK  146  A    between atoms: _351  and  _352
REMARK  147  A    between atoms: _355  and  _357
REMARK  148  A    between atoms: _357  and  _358
REMARK  149  A    between atoms: _357  and  _360
REMARK  150  A    between atoms: _360  and  _361
REMARK  151  A    between atoms: _364  and  _366
REMARK  152  A    between atoms: _366  and  _367
REMARK  153  A    between atoms: _366  and  _369
REMARK  154  A    between atoms: _369  and  _370
REMARK  155  A    between atoms: _373  and  _375
REMARK  156  A    between atoms: _375  and  _376
REMARK  157  A    between atoms: _375  and  _378
REMARK  158  A    between atoms: _378  and  _379
REMARK  159  A    between atoms: _382  and  _384
REMARK  160  A    between atoms: _384  and  _385
REMARK  161  A    between atoms: _384  and  _387
REMARK  162  A    between atoms: _390  and  _392
REMARK  163  A    between atoms: _392  and  _393
REMARK  164  A    between atoms: _392  and  _395
REMARK  165  A    between atoms: _395  and  _396
REMARK  166  A    between atoms: _399  and  _401
REMARK  167  A    between atoms: _401  and  _402
REMARK  168  A    between atoms: _401  and  _404
REMARK  169  A    between atoms: _404  and  _405
REMARK  170  A    between atoms: _405  and  _406
REMARK  171  A    between atoms: _406  and  _407
REMARK  172  A    between atoms: _407  and  _408
REMARK  173  A    between atoms: _412  and  _414
REMARK  174  A    between atoms: _414  and  _415
REMARK  175  A    between atoms: _414  and  _417
REMARK  176  A    between atoms: _417  and  _418
REMARK  177  A    between atoms: _418  and  _419
REMARK  178  A    between atoms: _421  and  _423
REMARK  179  A    between atoms: _423  and  _424
REMARK  180  A    between atoms: _423  and  _426
REMARK  181  A    between atoms: _426  and  _427
REMARK  182  A    between atoms: _430  and  _432
REMARK  183  A    between atoms: _432  and  _433
REMARK  184  A    between atoms: _435  and  _437
REMARK  185  A    between atoms: _437  and  _438
REMARK  186  A    between atoms: _440  and  _442
REMARK  187  A    between atoms: _442  and  _443
REMARK  188  A    between atoms: _442  and  _445
REMARK  189  A    between atoms: _445  and  _446
REMARK  190  A    between atoms: _449  and  _451
REMARK  191  A    between atoms: _451  and  _452
REMARK  192  A    between atoms: _454  and  _456
REMARK  193  A    between atoms: _456  and  _457
REMARK  194  A    between atoms: _459  and  _461
REMARK  195  A    between atoms: _461  and  _462
REMARK  196  A    between atoms: _461  and  _464
REMARK  197  A    between atoms: _464  and  _465
REMARK  198  A    between atoms: _471  and  _473
REMARK  199  A    between atoms: _473  and  _474
REMARK  200  A    between atoms: _473  and  _476
REMARK  201  A    between atoms: _476  and  _477
REMARK  202  A    between atoms: _480  and  _482
REMARK  203  A    between atoms: _482  and  _483
REMARK  204  A    between atoms: _482  and  _485
REMARK  205  A    between atoms: _488  and  _490
REMARK  206  A    between atoms: _490  and  _491
REMARK  207  A    between atoms: _490  and  _493
REMARK  208  A    between atoms: _493  and  _494
REMARK  209  A    between atoms: _497  and  _499
REMARK  210  A    between atoms: _499  and  _500
REMARK  211  A    between atoms: _499  and  _502
REMARK  212  A    between atoms: _502  and  _503
REMARK  213  A    between atoms: _507  and  _508
REMARK  214  A    between atoms: _513  and  _515
REMARK  215  A    between atoms: _515  and  _516
REMARK  216  A    between atoms: _515  and  _518
REMARK  217  A    between atoms: _518  and  _519
REMARK  218  A    between atoms: _522  and  _524
REMARK  219  A    between atoms: _524  and  _525
REMARK  220  A    between atoms: _524  and  _527
REMARK  221  A    between atoms: _527  and  _528
REMARK  222  A    between atoms: _533  and  _535
REMARK  223  A    between atoms: _535  and  _536
REMARK  224  A    between atoms: _535  and  _538
REMARK  225  A    between atoms: _541  and  _543
REMARK  226  A    between atoms: _543  and  _544
REMARK  227  A    between atoms: _543  and  _546
REMARK  228  A    between atoms: _546  and  _547
REMARK  229  A    between atoms: _550  and  _552
REMARK  230  A    between atoms: _552  and  _553
REMARK  231  A    between atoms: _555  and  _557
REMARK  232  A    between atoms: _557  and  _558
REMARK  233  A    between atoms: _557  and  _560
REMARK  234  A    between atoms: _560  and  _561
REMARK  235  A    between atoms: _561  and  _562
REMARK  236  A    between atoms: _562  and  _563
REMARK  237  A    between atoms: _572  and  _574
REMARK  238  A    between atoms: _574  and  _575
REMARK  239  A    between atoms: _574  and  _577
REMARK  240  A    between atoms: _577  and  _578
REMARK                            x       y       z     vdW  Elec       q    Type
REMARK                         _______ _______ _______ _____ _____    ______ ____
ROOT
ATOM      1  O   HOH     1      16.263  -5.733  21.018  0.00  0.00    +0.000 OA
ENDROOT
TORSDOF 0
REMARK  Name = ../refined-set-2016/1k6c/1k6c_pocket.pdb
REMARK  240 active torsions:
REMARK  status: ('A' for Active; 'I' for Inactive)
REMARK    1  A    between atoms: _1  and  _3
REMARK    2  A    between atoms: _3  and  _4
REMARK    3  A    between atoms: _3  and  _6
REMARK    4  A    between atoms: _6  and  _7
REMARK    5  A    between atoms: _7  and  _8
REMARK    6  A    between atoms: _8  and  _9
REMARK    7  A    between atoms: _18  and  _20
REMARK    8  A    between atoms: _20  and  _21
REMARK    9  A    between atoms: _20  and  _23
REMARK   10  A    between atoms: _23  and  _24
REMARK   11  A    between atoms: _27  and  _29
REMARK   12  A    between atoms: _29  and  _30
REMARK   13  A    between atoms: _29  and  _32
REMARK   14  A    between atoms: _32  and  _33
REMARK   15  A    between atoms: _36  and  _38
REMARK   16  A    between atoms: _38  and  _39
REMARK   17  A    between atoms: _38  and  _41
REMARK   18  A    between atoms: _41  and  _42
REMARK   19  A    between atoms: _45  and  _47
REMARK   20  A    between atoms: _47  and  _48
REMARK   21  A    between atoms: _47  and  _50
REMARK   22  A    between atoms: _50  and  _51
REMARK   23  A    between atoms: _54  and  _56
REMARK   24  A    between atoms: _56  and  _57
REMARK   25  A    between atoms: _56  and  _59
REMARK   26  A    between atoms: _59  and  _60
REMARK   27  A    between atoms: _63  and  _65
REMARK   28  A    between atoms: _65  and  _66
REMARK   29  A    between atoms: _68  and  _70
REMARK   30  A    between atoms: _70  and  _71
REMARK   31  A    between atoms: _74  and  _76
REMARK   32  A    between atoms: _76  and  _77
REMARK   33  A    between atoms: _76  and  _79
REMARK   34  A    between atoms: _79  and  _80
REMARK   35  A    between atoms: _83  and  _85
REMARK   36  A    between atoms: _85  and  _86
REMARK   37  A    between atoms: _85  and  _88
REMARK   38  A    between atoms: _88  and  _89
REMARK   39  A    between atoms: _92  and  _94
REMARK   40  A    between atoms: _94  and  _95
REMARK   41  A    between atoms: _94  and  _97
REMARK   42  A    between atoms: _97  and  _98
REMARK   43  A    between atoms: _101  and  _103
REMARK   44  A    between atoms: _103  and  _104
REMARK   45  A    between atoms: _103  and  _106
REMARK   46  A    between atoms: _109  and  _111
REMARK   47  A    between atoms: _111  and  _112
REMARK   48  A    between atoms: _111  and  _114
REMARK   49  A    between atoms: _114  and  _115
REMARK   50  A    between atoms: _118  and  _120
REMARK   51  A    between atoms: _120  and  _121
REMARK   52  A    between atoms: _120  and  _123
REMARK   53  A    between atoms: _123  and  _124
REMARK   54  A    between atoms: _124  and  _125
REMARK   55  A    between atoms: _125  and  _126
REMARK   56  A    between atoms: _126  and  _127
REMARK   57  A    between atoms: _131  and  _133
REMARK   58  A    between atoms: _133  and  _134
REMARK   59  A    between atoms: _133  and  _136
REMARK   60  A    between atoms: _136  and  _137
REMARK   61  A    between atoms: _137  and  _138
REMARK   62  A    between atoms: _140  and  _142
REMARK   63  A    between atoms: _142  and  _143
REMARK   64  A    between atoms: _142  and  _145
REMARK   65  A    between atoms: _145  and  _146
REMARK   66  A    between atoms: _149  and  _151
REMARK   67  A    between atoms: _151  and  _152
REMARK   68  A    between atoms: _154  and  _156
REMARK   69  A    between atoms: _156  and  _157
REMARK   70  A    between atoms: _159  and  _161
REMARK   71  A    between atoms: _161  and  _162
REMARK   72  A    between atoms: _161  and  _164
REMARK   73  A    between atoms: _164  and  _165
REMARK   74  A    between atoms: _168  and  _170
REMARK   75  A    between atoms: _170  and  _171
REMARK   76  A    between atoms: _173  and  _175
REMARK   77  A    between atoms: _175  and  _176
REMARK   78  A    between atoms: _178  and  _180
REMARK   79  A    between atoms: _180  and  _181
REMARK   80  A    between atoms: _180  and  _183
REMARK   81  A    between atoms: _183  and  _184
REMARK   82  A    between atoms: _190  and  _192
REMARK   83  A    between atoms: _192  and  _193
REMARK   84  A    between atoms: _192  and  _195
REMARK   85  A    between atoms: _195  and  _196
REMARK   86  A    between atoms: _199  and  _201
REMARK   87  A    between atoms: _201  and  _202
REMARK   88  A    between atoms: _201  and  _204
REMARK   89  A    between atoms: _207  and  _209
REMARK   90  A    between atoms: _209  and  _210
REMARK   91  A    between atoms: _209  and  _212
REMARK   92  A    between atoms: _212  and  _213
REMARK   93  A    between atoms: _216  and  _218
REMARK   94  A    between atoms: _218  and  _219
REMARK   95  A    between atoms: _218  and  _221
REMARK   96  A    between atoms: _221  and  _222
REMARK   97  A    between atoms: _226  and  _227
REMARK   98  A    between atoms: _232  and  _234
REMARK   99  A    between atoms: _234  and  _235
REMARK  100  A    between atoms: _234  and  _237
REMARK  101  A    between atoms: _237  and  _238
REMARK  102  A    between atoms: _241  and  _243
REMARK  103  A    between atoms: _243  and  _244
REMARK  104  A    between atoms: _243  and  _246
REMARK  105  A    between atoms: _246  and  _247
REMARK  106  A    between atoms: _252  and  _254
REMARK  107  A    between atoms: _254  and  _255
REMARK  108  A    between atoms: _254  and  _257
REMARK  109  A    between atoms: _260  and  _262
REMARK  110  A    between atoms: _262  and  _263
REMARK  111  A    between atoms: _262  and  _265
REMARK  112  A    between atoms: _265  and  _266
REMARK  113  A    between atoms: _269  and  _271
REMARK  114  A    between atoms: _271  and  _272
REMARK  115  A    between atoms: _274  and  _276
REMARK  116  A    between atoms: _276  and  _277
REMARK  117  A    between atoms: _276  and  _279
REMARK  118  A    between atoms: _279  and  _280
REMARK  119  A    between atoms: _280  and  _281
REMARK  120  A    between atoms: _281  and  _282
REMARK  121  A    between atoms: _291  and  _293
REMARK  122  A    between atoms: _293  and  _294
REMARK  123  A    between atoms: _293  and  _296
REMARK  124  A    between atoms: _296  and  _297
REMARK  125  A    between atoms: _297  and  _298
REMARK  126  A    between atoms: _298  and  _299
REMARK  127  A    between atoms: _308  and  _310
REMARK  128  A    between atoms: _310  and  _311
REMARK  129  A    between atoms: _310  and  _313
REMARK  130  A    between atoms: _313  and  _314
REMARK  131  A    between atoms: _317  and  _319
REMARK  132  A    between atoms: _319  and  _320
REMARK  133  A    between atoms: _319  and  _322
REMARK  134  A    between atoms: _322  and  _323
REMARK  135  A    between atoms: _326  and  _328
REMARK  136  A    between atoms: _328  and  _329
REMARK  137  A    between atoms: _328  and  _331
REMARK  138  A    between atoms: _331  and  _332
REMARK  139  A    between atoms: _335  and  _337
REMARK  140  A    between atoms: _337  and  _338
REMARK  141  A    between atoms: _337  and  _340
REMARK  142  A    between atoms: _340  and  _341
REMARK  143  A    between atoms: _344  and  _346
REMARK  144  A    between atoms: _346  and  _347
REMARK  145  A    between atoms: _349  and  _351
REMARK  146  A    between atoms: _351  and  _352
REMARK  147  A    between atoms: _355  and  _357
REMARK  148  A    between atoms: _357  and  _358
REMARK  149  A    between atoms: _357  and  _360
REMARK  150  A    between atoms: _360  and  _361
REMARK  151  A    between atoms: _364  and  _366
REMARK  152  A    between atoms: _366  and  _367
REMARK  153  A    between atoms: _366  and  _369
REMARK  154  A    between atoms: _369  and  _370
REMARK  155  A    between atoms: _373  and  _375
REMARK  156  A    between atoms: _375  and  _376
REMARK  157  A    between atoms: _375  and  _378
REMARK  158  A    between atoms: _378  and  _379
REMARK  159  A    between atoms: _382  and  _384
REMARK  160  A    between atoms: _384  and  _385
REMARK  161  A    between atoms: _384  and  _387
REMARK  162  A    between atoms: _390  and  _392
REMARK  163  A    between atoms: _392  and  _393
REMARK  164  A    between atoms: _392  and  _395
REMARK  165  A    between atoms: _395  and  _396
REMARK  166  A    between atoms: _399  and  _401
REMARK  167  A    between atoms: _401  and  _402
REMARK  168  A    between atoms: _401  and  _404
REMARK  169  A    between atoms: _404  and  _405
REMARK  170  A    between atoms: _405  and  _406
REMARK  171  A    between atoms: _406  and  _407
REMARK  172  A    between atoms: _407  and  _408
REMARK  173  A    between atoms: _412  and  _414
REMARK  174  A    between atoms: _414  and  _415
REMARK  175  A    between atoms: _414  and  _417
REMARK  176  A    between atoms: _417  and  _418
REMARK  177  A    between atoms: _418  and  _419
REMARK  178  A    between atoms: _421  and  _423
REMARK  179  A    between atoms: _423  and  _424
REMARK  180  A    between atoms: _423  and  _426
REMARK  181  A    between atoms: _426  and  _427
REMARK  182  A    between atoms: _430  and  _432
REMARK  183  A    between atoms: _432  and  _433
REMARK  184  A    between atoms: _435  and  _437
REMARK  185  A    between atoms: _437  and  _438
REMARK  186  A    between atoms: _440  and  _442
REMARK  187  A    between atoms: _442  and  _443
REMARK  188  A    between atoms: _442  and  _445
REMARK  189  A    between atoms: _445  and  _446
REMARK  190  A    between atoms: _449  and  _451
REMARK  191  A    between atoms: _451  and  _452
REMARK  192  A    between atoms: _454  and  _456
REMARK  193  A    between atoms: _456  and  _457
REMARK  194  A    between atoms: _459  and  _461
REMARK  195  A    between atoms: _461  and  _462
REMARK  196  A    between atoms: _461  and  _464
REMARK  197  A    between atoms: _464  and  _465
REMARK  198  A    between atoms: _471  and  _473
REMARK  199  A    between atoms: _473  and  _474
REMARK  200  A    between atoms: _473  and  _476
REMARK  201  A    between atoms: _476  and  _477
REMARK  202  A    between atoms: _480  and  _482
REMARK  203  A    between atoms: _482  and  _483
REMARK  204  A    between atoms: _482  and  _485
REMARK  205  A    between atoms: _488  and  _490
REMARK  206  A    between atoms: _490  and  _491
REMARK  207  A    between atoms: _490  and  _493
REMARK  208  A    between atoms: _493  and  _494
REMARK  209  A    between atoms: _497  and  _499
REMARK  210  A    between atoms: _499  and  _500
REMARK  211  A    between atoms: _499  and  _502
REMARK  212  A    between atoms: _502  and  _503
REMARK  213  A    between atoms: _507  and  _508
REMARK  214  A    between atoms: _513  and  _515
REMARK  215  A    between atoms: _515  and  _516
REMARK  216  A    between atoms: _515  and  _518
REMARK  217  A    between atoms: _518  and  _519
REMARK  218  A    between atoms: _522  and  _524
REMARK  219  A    between atoms: _524  and  _525
REMARK  220  A    between atoms: _524  and  _527
REMARK  221  A    between atoms: _527  and  _528
REMARK  222  A    between atoms: _533  and  _535
REMARK  223  A    between atoms: _535  and  _536
REMARK  224  A    between atoms: _535  and  _538
REMARK  225  A    between atoms: _541  and  _543
REMARK  226  A    between atoms: _543  and  _544
REMARK  227  A    between atoms: _543  and  _546
REMARK  228  A    between atoms: _546  and  _547
REMARK  229  A    between atoms: _550  and  _552
REMARK  230  A    between atoms: _552  and  _553
REMARK  231  A    between atoms: _555  and  _557
REMARK  232  A    between atoms: _557  and  _558
REMARK  233  A    between atoms: _557  and  _560
REMARK  234  A    between atoms: _560  and  _561
REMARK  235  A    between atoms: _561  and  _562
REMARK  236  A    between atoms: _562  and  _563
REMARK  237  A    between atoms: _572  and  _574
REMARK  238  A    between atoms: _574  and  _575
REMARK  239  A    between atoms: _574  and  _577
REMARK  240  A    between atoms: _577  and  _578
REMARK                            x       y       z     vdW  Elec       q    Type
REMARK                         _______ _______ _______ _____ _____    ______ ____
ROOT
ATOM      1  O   HOH     1       6.784  -5.775  18.980  0.00  0.00    +0.000 OA
ENDROOT
TORSDOF 0
REMARK  Name = ../refined-set-2016/1k6c/1k6c_pocket.pdb
REMARK  240 active torsions:
REMARK  status: ('A' for Active; 'I' for Inactive)
REMARK    1  A    between atoms: _1  and  _3
REMARK    2  A    between atoms: _3  and  _4
REMARK    3  A    between atoms: _3  and  _6
REMARK    4  A    between atoms: _6  and  _7
REMARK    5  A    between atoms: _7  and  _8
REMARK    6  A    between atoms: _8  and  _9
REMARK    7  A    between atoms: _18  and  _20
REMARK    8  A    between atoms: _20  and  _21
REMARK    9  A    between atoms: _20  and  _23
REMARK   10  A    between atoms: _23  and  _24
REMARK   11  A    between atoms: _27  and  _29
REMARK   12  A    between atoms: _29  and  _30
REMARK   13  A    between atoms: _29  and  _32
REMARK   14  A    between atoms: _32  and  _33
REMARK   15  A    between atoms: _36  and  _38
REMARK   16  A    between atoms: _38  and  _39
REMARK   17  A    between atoms: _38  and  _41
REMARK   18  A    between atoms: _41  and  _42
REMARK   19  A    between atoms: _45  and  _47
REMARK   20  A    between atoms: _47  and  _48
REMARK   21  A    between atoms: _47  and  _50
REMARK   22  A    between atoms: _50  and  _51
REMARK   23  A    between atoms: _54  and  _56
REMARK   24  A    between atoms: _56  and  _57
REMARK   25  A    between atoms: _56  and  _59
REMARK   26  A    between atoms: _59  and  _60
REMARK   27  A    between atoms: _63  and  _65
REMARK   28  A    between atoms: _65  and  _66
REMARK   29  A    between atoms: _68  and  _70
REMARK   30  A    between atoms: _70  and  _71
REMARK   31  A    between atoms: _74  and  _76
REMARK   32  A    between atoms: _76  and  _77
REMARK   33  A    between atoms: _76  and  _79
REMARK   34  A    between atoms: _79  and  _80
REMARK   35  A    between atoms: _83  and  _85
REMARK   36  A    between atoms: _85  and  _86
REMARK   37  A    between atoms: _85  and  _88
REMARK   38  A    between atoms: _88  and  _89
REMARK   39  A    between atoms: _92  and  _94
REMARK   40  A    between atoms: _94  and  _95
REMARK   41  A    between atoms: _94  and  _97
REMARK   42  A    between atoms: _97  and  _98
REMARK   43  A    between atoms: _101  and  _103
REMARK   44  A    between atoms: _103  and  _104
REMARK   45  A    between atoms: _103  and  _106
REMARK   46  A    between atoms: _109  and  _111
REMARK   47  A    between atoms: _111  and  _112
REMARK   48  A    between atoms: _111  and  _114
REMARK   49  A    between atoms: _114  and  _115
REMARK   50  A    between atoms: _118  and  _120
REMARK   51  A    between atoms: _120  and  _121
REMARK   52  A    between atoms: _120  and  _123
REMARK   53  A    between atoms: _123  and  _124
REMARK   54  A    between atoms: _124  and  _125
REMARK   55  A    between atoms: _125  and  _126
REMARK   56  A    between atoms: _126  and  _127
REMARK   57  A    between atoms: _131  and  _133
REMARK   58  A    between atoms: _133  and  _134
REMARK   59  A    between atoms: _133  and  _136
REMARK   60  A    between atoms: _136  and  _137
REMARK   61  A    between atoms: _137  and  _138
REMARK   62  A    between atoms: _140  and  _142
REMARK   63  A    between atoms: _142  and  _143
REMARK   64  A    between atoms: _142  and  _145
REMARK   65  A    between atoms: _145  and  _146
REMARK   66  A    between atoms: _149  and  _151
REMARK   67  A    between atoms: _151  and  _152
REMARK   68  A    between atoms: _154  and  _156
REMARK   69  A    between atoms: _156  and  _157
REMARK   70  A    between atoms: _159  and  _161
REMARK   71  A    between atoms: _161  and  _162
REMARK   72  A    between atoms: _161  and  _164
REMARK   73  A    between atoms: _164  and  _165
REMARK   74  A    between atoms: _168  and  _170
REMARK   75  A    between atoms: _170  and  _171
REMARK   76  A    between atoms: _173  and  _175
REMARK   77  A    between atoms: _175  and  _176
REMARK   78  A    between atoms: _178  and  _180
REMARK   79  A    between atoms: _180  and  _181
REMARK   80  A    between atoms: _180  and  _183
REMARK   81  A    between atoms: _183  and  _184
REMARK   82  A    between atoms: _190  and  _192
REMARK   83  A    between atoms: _192  and  _193
REMARK   84  A    between atoms: _192  and  _195
REMARK   85  A    between atoms: _195  and  _196
REMARK   86  A    between atoms: _199  and  _201
REMARK   87  A    between atoms: _201  and  _202
REMARK   88  A    between atoms: _201  and  _204
REMARK   89  A    between atoms: _207  and  _209
REMARK   90  A    between atoms: _209  and  _210
REMARK   91  A    between atoms: _209  and  _212
REMARK   92  A    between atoms: _212  and  _213
REMARK   93  A    between atoms: _216  and  _218
REMARK   94  A    between atoms: _218  and  _219
REMARK   95  A    between atoms: _218  and  _221
REMARK   96  A    between atoms: _221  and  _222
REMARK   97  A    between atoms: _226  and  _227
REMARK   98  A    between atoms: _232  and  _234
REMARK   99  A    between atoms: _234  and  _235
REMARK  100  A    between atoms: _234  and  _237
REMARK  101  A    between atoms: _237  and  _238
REMARK  102  A    between atoms: _241  and  _243
REMARK  103  A    between atoms: _243  and  _244
REMARK  104  A    between atoms: _243  and  _246
REMARK  105  A    between atoms: _246  and  _247
REMARK  106  A    between atoms: _252  and  _254
REMARK  107  A    between atoms: _254  and  _255
REMARK  108  A    between atoms: _254  and  _257
REMARK  109  A    between atoms: _260  and  _262
REMARK  110  A    between atoms: _262  and  _263
REMARK  111  A    between atoms: _262  and  _265
REMARK  112  A    between atoms: _265  and  _266
REMARK  113  A    between atoms: _269  and  _271
REMARK  114  A    between atoms: _271  and  _272
REMARK  115  A    between atoms: _274  and  _276
REMARK  116  A    between atoms: _276  and  _277
REMARK  117  A    between atoms: _276  and  _279
REMARK  118  A    between atoms: _279  and  _280
REMARK  119  A    between atoms: _280  and  _281
REMARK  120  A    between atoms: _281  and  _282
REMARK  121  A    between atoms: _291  and  _293
REMARK  122  A    between atoms: _293  and  _294
REMARK  123  A    between atoms: _293  and  _296
REMARK  124  A    between atoms: _296  and  _297
REMARK  125  A    between atoms: _297  and  _298
REMARK  126  A    between atoms: _298  and  _299
REMARK  127  A    between atoms: _308  and  _310
REMARK  128  A    between atoms: _310  and  _311
REMARK  129  A    between atoms: _310  and  _313
REMARK  130  A    between atoms: _313  and  _314
REMARK  131  A    between atoms: _317  and  _319
REMARK  132  A    between atoms: _319  and  _320
REMARK  133  A    between atoms: _319  and  _322
REMARK  134  A    between atoms: _322  and  _323
REMARK  135  A    between atoms: _326  and  _328
REMARK  136  A    between atoms: _328  and  _329
REMARK  137  A    between atoms: _328  and  _331
REMARK  138  A    between atoms: _331  and  _332
REMARK  139  A    between atoms: _335  and  _337
REMARK  140  A    between atoms: _337  and  _338
REMARK  141  A    between atoms: _337  and  _340
REMARK  142  A    between atoms: _340  and  _341
REMARK  143  A    between atoms: _344  and  _346
REMARK  144  A    between atoms: _346  and  _347
REMARK  145  A    between atoms: _349  and  _351
REMARK  146  A    between atoms: _351  and  _352
REMARK  147  A    between atoms: _355  and  _357
REMARK  148  A    between atoms: _357  and  _358
REMARK  149  A    between atoms: _357  and  _360
REMARK  150  A    between atoms: _360  and  _361
REMARK  151  A    between atoms: _364  and  _366
REMARK  152  A    between atoms: _366  and  _367
REMARK  153  A    between atoms: _366  and  _369
REMARK  154  A    between atoms: _369  and  _370
REMARK  155  A    between atoms: _373  and  _375
REMARK  156  A    between atoms: _375  and  _376
REMARK  157  A    between atoms: _375  and  _378
REMARK  158  A    between atoms: _378  and  _379
REMARK  159  A    between atoms: _382  and  _384
REMARK  160  A    between atoms: _384  and  _385
REMARK  161  A    between atoms: _384  and  _387
REMARK  162  A    between atoms: _390  and  _392
REMARK  163  A    between atoms: _392  and  _393
REMARK  164  A    between atoms: _392  and  _395
REMARK  165  A    between atoms: _395  and  _396
REMARK  166  A    between atoms: _399  and  _401
REMARK  167  A    between atoms: _401  and  _402
REMARK  168  A    between atoms: _401  and  _404
REMARK  169  A    between atoms: _404  and  _405
REMARK  170  A    between atoms: _405  and  _406
REMARK  171  A    between atoms: _406  and  _407
REMARK  172  A    between atoms: _407  and  _408
REMARK  173  A    between atoms: _412  and  _414
REMARK  174  A    between atoms: _414  and  _415
REMARK  175  A    between atoms: _414  and  _417
REMARK  176  A    between atoms: _417  and  _418
REMARK  177  A    between atoms: _418  and  _419
REMARK  178  A    between atoms: _421  and  _423
REMARK  179  A    between atoms: _423  and  _424
REMARK  180  A    between atoms: _423  and  _426
REMARK  181  A    between atoms: _426  and  _427
REMARK  182  A    between atoms: _430  and  _432
REMARK  183  A    between atoms: _432  and  _433
REMARK  184  A    between atoms: _435  and  _437
REMARK  185  A    between atoms: _437  and  _438
REMARK  186  A    between atoms: _440  and  _442
REMARK  187  A    between atoms: _442  and  _443
REMARK  188  A    between atoms: _442  and  _445
REMARK  189  A    between atoms: _445  and  _446
REMARK  190  A    between atoms: _449  and  _451
REMARK  191  A    between atoms: _451  and  _452
REMARK  192  A    between atoms: _454  and  _456
REMARK  193  A    between atoms: _456  and  _457
REMARK  194  A    between atoms: _459  and  _461
REMARK  195  A    between atoms: _461  and  _462
REMARK  196  A    between atoms: _461  and  _464
REMARK  197  A    between atoms: _464  and  _465
REMARK  198  A    between atoms: _471  and  _473
REMARK  199  A    between atoms: _473  and  _474
REMARK  200  A    between atoms: _473  and  _476
REMARK  201  A    between atoms: _476  and  _477
REMARK  202  A    between atoms: _480  and  _482
REMARK  203  A    between atoms: _482  and  _483
REMARK  204  A    between atoms: _482  and  _485
REMARK  205  A    between atoms: _488  and  _490
REMARK  206  A    between atoms: _490  and  _491
REMARK  207  A    between atoms: _490  and  _493
REMARK  208  A    between atoms: _493  and  _494
REMARK  209  A    between atoms: _497  and  _499
REMARK  210  A    between atoms: _499  and  _500
REMARK  211  A    between atoms: _499  and  _502
REMARK  212  A    between atoms: _502  and  _503
REMARK  213  A    between atoms: _507  and  _508
REMARK  214  A    between atoms: _513  and  _515
REMARK  215  A    between atoms: _515  and  _516
REMARK  216  A    between atoms: _515  and  _518
REMARK  217  A    between atoms: _518  and  _519
REMARK  218  A    between atoms: _522  and  _524
REMARK  219  A    between atoms: _524  and  _525
REMARK  220  A    between atoms: _524  and  _527
REMARK  221  A    between atoms: _527  and  _528
REMARK  222  A    between atoms: _533  and  _535
REMARK  223  A    between atoms: _535  and  _536
REMARK  224  A    between atoms: _535  and  _538
REMARK  225  A    between atoms: _541  and  _543
REMARK  226  A    between atoms: _543  and  _544
REMARK  227  A    between atoms: _543  and  _546
REMARK  228  A    between atoms: _546  and  _547
REMARK  229  A    between atoms: _550  and  _552
REMARK  230  A    between atoms: _552  and  _553
REMARK  231  A    between atoms: _555  and  _557
REMARK  232  A    between atoms: _557  and  _558
REMARK  233  A    between atoms: _557  and  _560
REMARK  234  A    between atoms: _560  and  _561
REMARK  235  A    between atoms: _561  and  _562
REMARK  236  A    between atoms: _562  and  _563
REMARK  237  A    between atoms: _572  and  _574
REMARK  238  A    between atoms: _574  and  _575
REMARK  239  A    between atoms: _574  and  _577
REMARK  240  A    between atoms: _577  and  _578
REMARK                            x       y       z     vdW  Elec       q    Type
REMARK                         _______ _______ _______ _____ _____    ______ ____
ROOT
ATOM      1  O   HOH     1      10.375   9.858  10.512  0.00  0.00    +0.000 OA
ENDROOT
TORSDOF 0
REMARK  Name = ../refined-set-2016/1k6c/1k6c_pocket.pdb
REMARK  240 active torsions:
REMARK  status: ('A' for Active; 'I' for Inactive)
REMARK    1  A    between atoms: _1  and  _3
REMARK    2  A    between atoms: _3  and  _4
REMARK    3  A    between atoms: _3  and  _6
REMARK    4  A    between atoms: _6  and  _7
REMARK    5  A    between atoms: _7  and  _8
REMARK    6  A    between atoms: _8  and  _9
REMARK    7  A    between atoms: _18  and  _20
REMARK    8  A    between atoms: _20  and  _21
REMARK    9  A    between atoms: _20  and  _23
REMARK   10  A    between atoms: _23  and  _24
REMARK   11  A    between atoms: _27  and  _29
REMARK   12  A    between atoms: _29  and  _30
REMARK   13  A    between atoms: _29  and  _32
REMARK   14  A    between atoms: _32  and  _33
REMARK   15  A    between atoms: _36  and  _38
REMARK   16  A    between atoms: _38  and  _39
REMARK   17  A    between atoms: _38  and  _41
REMARK   18  A    between atoms: _41  and  _42
REMARK   19  A    between atoms: _45  and  _47
REMARK   20  A    between atoms: _47  and  _48
REMARK   21  A    between atoms: _47  and  _50
REMARK   22  A    between atoms: _50  and  _51
REMARK   23  A    between atoms: _54  and  _56
REMARK   24  A    between atoms: _56  and  _57
REMARK   25  A    between atoms: _56  and  _59
REMARK   26  A    between atoms: _59  and  _60
REMARK   27  A    between atoms: _63  and  _65
REMARK   28  A    between atoms: _65  and  _66
REMARK   29  A    between atoms: _68  and  _70
REMARK   30  A    between atoms: _70  and  _71
REMARK   31  A    between atoms: _74  and  _76
REMARK   32  A    between atoms: _76  and  _77
REMARK   33  A    between atoms: _76  and  _79
REMARK   34  A    between atoms: _79  and  _80
REMARK   35  A    between atoms: _83  and  _85
REMARK   36  A    between atoms: _85  and  _86
REMARK   37  A    between atoms: _85  and  _88
REMARK   38  A    between atoms: _88  and  _89
REMARK   39  A    between atoms: _92  and  _94
REMARK   40  A    between atoms: _94  and  _95
REMARK   41  A    between atoms: _94  and  _97
REMARK   42  A    between atoms: _97  and  _98
REMARK   43  A    between atoms: _101  and  _103
REMARK   44  A    between atoms: _103  and  _104
REMARK   45  A    between atoms: _103  and  _106
REMARK   46  A    between atoms: _109  and  _111
REMARK   47  A    between atoms: _111  and  _112
REMARK   48  A    between atoms: _111  and  _114
REMARK   49  A    between atoms: _114  and  _115
REMARK   50  A    between atoms: _118  and  _120
REMARK   51  A    between atoms: _120  and  _121
REMARK   52  A    between atoms: _120  and  _123
REMARK   53  A    between atoms: _123  and  _124
REMARK   54  A    between atoms: _124  and  _125
REMARK   55  A    between atoms: _125  and  _126
REMARK   56  A    between atoms: _126  and  _127
REMARK   57  A    between atoms: _131  and  _133
REMARK   58  A    between atoms: _133  and  _134
REMARK   59  A    between atoms: _133  and  _136
REMARK   60  A    between atoms: _136  and  _137
REMARK   61  A    between atoms: _137  and  _138
REMARK   62  A    between atoms: _140  and  _142
REMARK   63  A    between atoms: _142  and  _143
REMARK   64  A    between atoms: _142  and  _145
REMARK   65  A    between atoms: _145  and  _146
REMARK   66  A    between atoms: _149  and  _151
REMARK   67  A    between atoms: _151  and  _152
REMARK   68  A    between atoms: _154  and  _156
REMARK   69  A    between atoms: _156  and  _157
REMARK   70  A    between atoms: _159  and  _161
REMARK   71  A    between atoms: _161  and  _162
REMARK   72  A    between atoms: _161  and  _164
REMARK   73  A    between atoms: _164  and  _165
REMARK   74  A    between atoms: _168  and  _170
REMARK   75  A    between atoms: _170  and  _171
REMARK   76  A    between atoms: _173  and  _175
REMARK   77  A    between atoms: _175  and  _176
REMARK   78  A    between atoms: _178  and  _180
REMARK   79  A    between atoms: _180  and  _181
REMARK   80  A    between atoms: _180  and  _183
REMARK   81  A    between atoms: _183  and  _184
REMARK   82  A    between atoms: _190  and  _192
REMARK   83  A    between atoms: _192  and  _193
REMARK   84  A    between atoms: _192  and  _195
REMARK   85  A    between atoms: _195  and  _196
REMARK   86  A    between atoms: _199  and  _201
REMARK   87  A    between atoms: _201  and  _202
REMARK   88  A    between atoms: _201  and  _204
REMARK   89  A    between atoms: _207  and  _209
REMARK   90  A    between atoms: _209  and  _210
REMARK   91  A    between atoms: _209  and  _212
REMARK   92  A    between atoms: _212  and  _213
REMARK   93  A    between atoms: _216  and  _218
REMARK   94  A    between atoms: _218  and  _219
REMARK   95  A    between atoms: _218  and  _221
REMARK   96  A    between atoms: _221  and  _222
REMARK   97  A    between atoms: _226  and  _227
REMARK   98  A    between atoms: _232  and  _234
REMARK   99  A    between atoms: _234  and  _235
REMARK  100  A    between atoms: _234  and  _237
REMARK  101  A    between atoms: _237  and  _238
REMARK  102  A    between atoms: _241  and  _243
REMARK  103  A    between atoms: _243  and  _244
REMARK  104  A    between atoms: _243  and  _246
REMARK  105  A    between atoms: _246  and  _247
REMARK  106  A    between atoms: _252  and  _254
REMARK  107  A    between atoms: _254  and  _255
REMARK  108  A    between atoms: _254  and  _257
REMARK  109  A    between atoms: _260  and  _262
REMARK  110  A    between atoms: _262  and  _263
REMARK  111  A    between atoms: _262  and  _265
REMARK  112  A    between atoms: _265  and  _266
REMARK  113  A    between atoms: _269  and  _271
REMARK  114  A    between atoms: _271  and  _272
REMARK  115  A    between atoms: _274  and  _276
REMARK  116  A    between atoms: _276  and  _277
REMARK  117  A    between atoms: _276  and  _279
REMARK  118  A    between atoms: _279  and  _280
REMARK  119  A    between atoms: _280  and  _281
REMARK  120  A    between atoms: _281  and  _282
REMARK  121  A    between atoms: _291  and  _293
REMARK  122  A    between atoms: _293  and  _294
REMARK  123  A    between atoms: _293  and  _296
REMARK  124  A    between atoms: _296  and  _297
REMARK  125  A    between atoms: _297  and  _298
REMARK  126  A    between atoms: _298  and  _299
REMARK  127  A    between atoms: _308  and  _310
REMARK  128  A    between atoms: _310  and  _311
REMARK  129  A    between atoms: _310  and  _313
REMARK  130  A    between atoms: _313  and  _314
REMARK  131  A    between atoms: _317  and  _319
REMARK  132  A    between atoms: _319  and  _320
REMARK  133  A    between atoms: _319  and  _322
REMARK  134  A    between atoms: _322  and  _323
REMARK  135  A    between atoms: _326  and  _328
REMARK  136  A    between atoms: _328  and  _329
REMARK  137  A    between atoms: _328  and  _331
REMARK  138  A    between atoms: _331  and  _332
REMARK  139  A    between atoms: _335  and  _337
REMARK  140  A    between atoms: _337  and  _338
REMARK  141  A    between atoms: _337  and  _340
REMARK  142  A    between atoms: _340  and  _341
REMARK  143  A    between atoms: _344  and  _346
REMARK  144  A    between atoms: _346  and  _347
REMARK  145  A    between atoms: _349  and  _351
REMARK  146  A    between atoms: _351  and  _352
REMARK  147  A    between atoms: _355  and  _357
REMARK  148  A    between atoms: _357  and  _358
REMARK  149  A    between atoms: _357  and  _360
REMARK  150  A    between atoms: _360  and  _361
REMARK  151  A    between atoms: _364  and  _366
REMARK  152  A    between atoms: _366  and  _367
REMARK  153  A    between atoms: _366  and  _369
REMARK  154  A    between atoms: _369  and  _370
REMARK  155  A    between atoms: _373  and  _375
REMARK  156  A    between atoms: _375  and  _376
REMARK  157  A    between atoms: _375  and  _378
REMARK  158  A    between atoms: _378  and  _379
REMARK  159  A    between atoms: _382  and  _384
REMARK  160  A    between atoms: _384  and  _385
REMARK  161  A    between atoms: _384  and  _387
REMARK  162  A    between atoms: _390  and  _392
REMARK  163  A    between atoms: _392  and  _393
REMARK  164  A    between atoms: _392  and  _395
REMARK  165  A    between atoms: _395  and  _396
REMARK  166  A    between atoms: _399  and  _401
REMARK  167  A    between atoms: _401  and  _402
REMARK  168  A    between atoms: _401  and  _404
REMARK  169  A    between atoms: _404  and  _405
REMARK  170  A    between atoms: _405  and  _406
REMARK  171  A    between atoms: _406  and  _407
REMARK  172  A    between atoms: _407  and  _408
REMARK  173  A    between atoms: _412  and  _414
REMARK  174  A    between atoms: _414  and  _415
REMARK  175  A    between atoms: _414  and  _417
REMARK  176  A    between atoms: _417  and  _418
REMARK  177  A    between atoms: _418  and  _419
REMARK  178  A    between atoms: _421  and  _423
REMARK  179  A    between atoms: _423  and  _424
REMARK  180  A    between atoms: _423  and  _426
REMARK  181  A    between atoms: _426  and  _427
REMARK  182  A    between atoms: _430  and  _432
REMARK  183  A    between atoms: _432  and  _433
REMARK  184  A    between atoms: _435  and  _437
REMARK  185  A    between atoms: _437  and  _438
REMARK  186  A    between atoms: _440  and  _442
REMARK  187  A    between atoms: _442  and  _443
REMARK  188  A    between atoms: _442  and  _445
REMARK  189  A    between atoms: _445  and  _446
REMARK  190  A    between atoms: _449  and  _451
REMARK  191  A    between atoms: _451  and  _452
REMARK  192  A    between atoms: _454  and  _456
REMARK  193  A    between atoms: _456  and  _457
REMARK  194  A    between atoms: _459  and  _461
REMARK  195  A    between atoms: _461  and  _462
REMARK  196  A    between atoms: _461  and  _464
REMARK  197  A    between atoms: _464  and  _465
REMARK  198  A    between atoms: _471  and  _473
REMARK  199  A    between atoms: _473  and  _474
REMARK  200  A    between atoms: _473  and  _476
REMARK  201  A    between atoms: _476  and  _477
REMARK  202  A    between atoms: _480  and  _482
REMARK  203  A    between atoms: _482  and  _483
REMARK  204  A    between atoms: _482  and  _485
REMARK  205  A    between atoms: _488  and  _490
REMARK  206  A    between atoms: _490  and  _491
REMARK  207  A    between atoms: _490  and  _493
REMARK  208  A    between atoms: _493  and  _494
REMARK  209  A    between atoms: _497  and  _499
REMARK  210  A    between atoms: _499  and  _500
REMARK  211  A    between atoms: _499  and  _502
REMARK  212  A    between atoms: _502  and  _503
REMARK  213  A    between atoms: _507  and  _508
REMARK  214  A    between atoms: _513  and  _515
REMARK  215  A    between atoms: _515  and  _516
REMARK  216  A    between atoms: _515  and  _518
REMARK  217  A    between atoms: _518  and  _519
REMARK  218  A    between atoms: _522  and  _524
REMARK  219  A    between atoms: _524  and  _525
REMARK  220  A    between atoms: _524  and  _527
REMARK  221  A    between atoms: _527  and  _528
REMARK  222  A    between atoms: _533  and  _535
REMARK  223  A    between atoms: _535  and  _536
REMARK  224  A    between atoms: _535  and  _538
REMARK  225  A    between atoms: _541  and  _543
REMARK  226  A    between atoms: _543  and  _544
REMARK  227  A    between atoms: _543  and  _546
REMARK  228  A    between atoms: _546  and  _547
REMARK  229  A    between atoms: _550  and  _552
REMARK  230  A    between atoms: _552  and  _553
REMARK  231  A    between atoms: _555  and  _557
REMARK  232  A    between atoms: _557  and  _558
REMARK  233  A    between atoms: _557  and  _560
REMARK  234  A    between atoms: _560  and  _561
REMARK  235  A    between atoms: _561  and  _562
REMARK  236  A    between atoms: _562  and  _563
REMARK  237  A    between atoms: _572  and  _574
REMARK  238  A    between atoms: _574  and  _575
REMARK  239  A    between atoms: _574  and  _577
REMARK  240  A    between atoms: _577  and  _578
REMARK                            x       y       z     vdW  Elec       q    Type
REMARK                         _______ _______ _______ _____ _____    ______ ____
ROOT
ATOM      1  O   HOH     1      14.879 -10.259  21.264  0.00  0.00    +0.000 OA
ENDROOT
TORSDOF 0
REMARK  Name = ../refined-set-2016/1k6c/1k6c_pocket.pdb
REMARK  240 active torsions:
REMARK  status: ('A' for Active; 'I' for Inactive)
REMARK    1  A    between atoms: _1  and  _3
REMARK    2  A    between atoms: _3  and  _4
REMARK    3  A    between atoms: _3  and  _6
REMARK    4  A    between atoms: _6  and  _7
REMARK    5  A    between atoms: _7  and  _8
REMARK    6  A    between atoms: _8  and  _9
REMARK    7  A    between atoms: _18  and  _20
REMARK    8  A    between atoms: _20  and  _21
REMARK    9  A    between atoms: _20  and  _23
REMARK   10  A    between atoms: _23  and  _24
REMARK   11  A    between atoms: _27  and  _29
REMARK   12  A    between atoms: _29  and  _30
REMARK   13  A    between atoms: _29  and  _32
REMARK   14  A    between atoms: _32  and  _33
REMARK   15  A    between atoms: _36  and  _38
REMARK   16  A    between atoms: _38  and  _39
REMARK   17  A    between atoms: _38  and  _41
REMARK   18  A    between atoms: _41  and  _42
REMARK   19  A    between atoms: _45  and  _47
REMARK   20  A    between atoms: _47  and  _48
REMARK   21  A    between atoms: _47  and  _50
REMARK   22  A    between atoms: _50  and  _51
REMARK   23  A    between atoms: _54  and  _56
REMARK   24  A    between atoms: _56  and  _57
REMARK   25  A    between atoms: _56  and  _59
REMARK   26  A    between atoms: _59  and  _60
REMARK   27  A    between atoms: _63  and  _65
REMARK   28  A    between atoms: _65  and  _66
REMARK   29  A    between atoms: _68  and  _70
REMARK   30  A    between atoms: _70  and  _71
REMARK   31  A    between atoms: _74  and  _76
REMARK   32  A    between atoms: _76  and  _77
REMARK   33  A    between atoms: _76  and  _79
REMARK   34  A    between atoms: _79  and  _80
REMARK   35  A    between atoms: _83  and  _85
REMARK   36  A    between atoms: _85  and  _86
REMARK   37  A    between atoms: _85  and  _88
REMARK   38  A    between atoms: _88  and  _89
REMARK   39  A    between atoms: _92  and  _94
REMARK   40  A    between atoms: _94  and  _95
REMARK   41  A    between atoms: _94  and  _97
REMARK   42  A    between atoms: _97  and  _98
REMARK   43  A    between atoms: _101  and  _103
REMARK   44  A    between atoms: _103  and  _104
REMARK   45  A    between atoms: _103  and  _106
REMARK   46  A    between atoms: _109  and  _111
REMARK   47  A    between atoms: _111  and  _112
REMARK   48  A    between atoms: _111  and  _114
REMARK   49  A    between atoms: _114  and  _115
REMARK   50  A    between atoms: _118  and  _120
REMARK   51  A    between atoms: _120  and  _121
REMARK   52  A    between atoms: _120  and  _123
REMARK   53  A    between atoms: _123  and  _124
REMARK   54  A    between atoms: _124  and  _125
REMARK   55  A    between atoms: _125  and  _126
REMARK   56  A    between atoms: _126  and  _127
REMARK   57  A    between atoms: _131  and  _133
REMARK   58  A    between atoms: _133  and  _134
REMARK   59  A    between atoms: _133  and  _136
REMARK   60  A    between atoms: _136  and  _137
REMARK   61  A    between atoms: _137  and  _138
REMARK   62  A    between atoms: _140  and  _142
REMARK   63  A    between atoms: _142  and  _143
REMARK   64  A    between atoms: _142  and  _145
REMARK   65  A    between atoms: _145  and  _146
REMARK   66  A    between atoms: _149  and  _151
REMARK   67  A    between atoms: _151  and  _152
REMARK   68  A    between atoms: _154  and  _156
REMARK   69  A    between atoms: _156  and  _157
REMARK   70  A    between atoms: _159  and  _161
REMARK   71  A    between atoms: _161  and  _162
REMARK   72  A    between atoms: _161  and  _164
REMARK   73  A    between atoms: _164  and  _165
REMARK   74  A    between atoms: _168  and  _170
REMARK   75  A    between atoms: _170  and  _171
REMARK   76  A    between atoms: _173  and  _175
REMARK   77  A    between atoms: _175  and  _176
REMARK   78  A    between atoms: _178  and  _180
REMARK   79  A    between atoms: _180  and  _181
REMARK   80  A    between atoms: _180  and  _183
REMARK   81  A    between atoms: _183  and  _184
REMARK   82  A    between atoms: _190  and  _192
REMARK   83  A    between atoms: _192  and  _193
REMARK   84  A    between atoms: _192  and  _195
REMARK   85  A    between atoms: _195  and  _196
REMARK   86  A    between atoms: _199  and  _201
REMARK   87  A    between atoms: _201  and  _202
REMARK   88  A    between atoms: _201  and  _204
REMARK   89  A    between atoms: _207  and  _209
REMARK   90  A    between atoms: _209  and  _210
REMARK   91  A    between atoms: _209  and  _212
REMARK   92  A    between atoms: _212  and  _213
REMARK   93  A    between atoms: _216  and  _218
REMARK   94  A    between atoms: _218  and  _219
REMARK   95  A    between atoms: _218  and  _221
REMARK   96  A    between atoms: _221  and  _222
REMARK   97  A    between atoms: _226  and  _227
REMARK   98  A    between atoms: _232  and  _234
REMARK   99  A    between atoms: _234  and  _235
REMARK  100  A    between atoms: _234  and  _237
REMARK  101  A    between atoms: _237  and  _238
REMARK  102  A    between atoms: _241  and  _243
REMARK  103  A    between atoms: _243  and  _244
REMARK  104  A    between atoms: _243  and  _246
REMARK  105  A    between atoms: _246  and  _247
REMARK  106  A    between atoms: _252  and  _254
REMARK  107  A    between atoms: _254  and  _255
REMARK  108  A    between atoms: _254  and  _257
REMARK  109  A    between atoms: _260  and  _262
REMARK  110  A    between atoms: _262  and  _263
REMARK  111  A    between atoms: _262  and  _265
REMARK  112  A    between atoms: _265  and  _266
REMARK  113  A    between atoms: _269  and  _271
REMARK  114  A    between atoms: _271  and  _272
REMARK  115  A    between atoms: _274  and  _276
REMARK  116  A    between atoms: _276  and  _277
REMARK  117  A    between atoms: _276  and  _279
REMARK  118  A    between atoms: _279  and  _280
REMARK  119  A    between atoms: _280  and  _281
REMARK  120  A    between atoms: _281  and  _282
REMARK  121  A    between atoms: _291  and  _293
REMARK  122  A    between atoms: _293  and  _294
REMARK  123  A    between atoms: _293  and  _296
REMARK  124  A    between atoms: _296  and  _297
REMARK  125  A    between atoms: _297  and  _298
REMARK  126  A    between atoms: _298  and  _299
REMARK  127  A    between atoms: _308  and  _310
REMARK  128  A    between atoms: _310  and  _311
REMARK  129  A    between atoms: _310  and  _313
REMARK  130  A    between atoms: _313  and  _314
REMARK  131  A    between atoms: _317  and  _319
REMARK  132  A    between atoms: _319  and  _320
REMARK  133  A    between atoms: _319  and  _322
REMARK  134  A    between atoms: _322  and  _323
REMARK  135  A    between atoms: _326  and  _328
REMARK  136  A    between atoms: _328  and  _329
REMARK  137  A    between atoms: _328  and  _331
REMARK  138  A    between atoms: _331  and  _332
REMARK  139  A    between atoms: _335  and  _337
REMARK  140  A    between atoms: _337  and  _338
REMARK  141  A    between atoms: _337  and  _340
REMARK  142  A    between atoms: _340  and  _341
REMARK  143  A    between atoms: _344  and  _346
REMARK  144  A    between atoms: _346  and  _347
REMARK  145  A    between atoms: _349  and  _351
REMARK  146  A    between atoms: _351  and  _352
REMARK  147  A    between atoms: _355  and  _357
REMARK  148  A    between atoms: _357  and  _358
REMARK  149  A    between atoms: _357  and  _360
REMARK  150  A    between atoms: _360  and  _361
REMARK  151  A    between atoms: _364  and  _366
REMARK  152  A    between atoms: _366  and  _367
REMARK  153  A    between atoms: _366  and  _369
REMARK  154  A    between atoms: _369  and  _370
REMARK  155  A    between atoms: _373  and  _375
REMARK  156  A    between atoms: _375  and  _376
REMARK  157  A    between atoms: _375  and  _378
REMARK  158  A    between atoms: _378  and  _379
REMARK  159  A    between atoms: _382  and  _384
REMARK  160  A    between atoms: _384  and  _385
REMARK  161  A    between atoms: _384  and  _387
REMARK  162  A    between atoms: _390  and  _392
REMARK  163  A    between atoms: _392  and  _393
REMARK  164  A    between atoms: _392  and  _395
REMARK  165  A    between atoms: _395  and  _396
REMARK  166  A    between atoms: _399  and  _401
REMARK  167  A    between atoms: _401  and  _402
REMARK  168  A    between atoms: _401  and  _404
REMARK  169  A    between atoms: _404  and  _405
REMARK  170  A    between atoms: _405  and  _406
REMARK  171  A    between atoms: _406  and  _407
REMARK  172  A    between atoms: _407  and  _408
REMARK  173  A    between atoms: _412  and  _414
REMARK  174  A    between atoms: _414  and  _415
REMARK  175  A    between atoms: _414  and  _417
REMARK  176  A    between atoms: _417  and  _418
REMARK  177  A    between atoms: _418  and  _419
REMARK  178  A    between atoms: _421  and  _423
REMARK  179  A    between atoms: _423  and  _424
REMARK  180  A    between atoms: _423  and  _426
REMARK  181  A    between atoms: _426  and  _427
REMARK  182  A    between atoms: _430  and  _432
REMARK  183  A    between atoms: _432  and  _433
REMARK  184  A    between atoms: _435  and  _437
REMARK  185  A    between atoms: _437  and  _438
REMARK  186  A    between atoms: _440  and  _442
REMARK  187  A    between atoms: _442  and  _443
REMARK  188  A    between atoms: _442  and  _445
REMARK  189  A    between atoms: _445  and  _446
REMARK  190  A    between atoms: _449  and  _451
REMARK  191  A    between atoms: _451  and  _452
REMARK  192  A    between atoms: _454  and  _456
REMARK  193  A    between atoms: _456  and  _457
REMARK  194  A    between atoms: _459  and  _461
REMARK  195  A    between atoms: _461  and  _462
REMARK  196  A    between atoms: _461  and  _464
REMARK  197  A    between atoms: _464  and  _465
REMARK  198  A    between atoms: _471  and  _473
REMARK  199  A    between atoms: _473  and  _474
REMARK  200  A    between atoms: _473  and  _476
REMARK  201  A    between atoms: _476  and  _477
REMARK  202  A    between atoms: _480  and  _482
REMARK  203  A    between atoms: _482  and  _483
REMARK  204  A    between atoms: _482  and  _485
REMARK  205  A    between atoms: _488  and  _490
REMARK  206  A    between atoms: _490  and  _491
REMARK  207  A    between atoms: _490  and  _493
REMARK  208  A    between atoms: _493  and  _494
REMARK  209  A    between atoms: _497  and  _499
REMARK  210  A    between atoms: _499  and  _500
REMARK  211  A    between atoms: _499  and  _502
REMARK  212  A    between atoms: _502  and  _503
REMARK  213  A    between atoms: _507  and  _508
REMARK  214  A    between atoms: _513  and  _515
REMARK  215  A    between atoms: _515  and  _516
REMARK  216  A    between atoms: _515  and  _518
REMARK  217  A    between atoms: _518  and  _519
REMARK  218  A    between atoms: _522  and  _524
REMARK  219  A    between atoms: _524  and  _525
REMARK  220  A    between atoms: _524  and  _527
REMARK  221  A    between atoms: _527  and  _528
REMARK  222  A    between atoms: _533  and  _535
REMARK  223  A    between atoms: _535  and  _536
REMARK  224  A    between atoms: _535  and  _538
REMARK  225  A    between atoms: _541  and  _543
REMARK  226  A    between atoms: _543  and  _544
REMARK  227  A    between atoms: _543  and  _546
REMARK  228  A    between atoms: _546  and  _547
REMARK  229  A    between atoms: _550  and  _552
REMARK  230  A    between atoms: _552  and  _553
REMARK  231  A    between atoms: _555  and  _557
REMARK  232  A    between atoms: _557  and  _558
REMARK  233  A    between atoms: _557  and  _560
REMARK  234  A    between atoms: _560  and  _561
REMARK  235  A    between atoms: _561  and  _562
REMARK  236  A    between atoms: _562  and  _563
REMARK  237  A    between atoms: _572  and  _574
REMARK  238  A    between atoms: _574  and  _575
REMARK  239  A    between atoms: _574  and  _577
REMARK  240  A    between atoms: _577  and  _578
REMARK                            x       y       z     vdW  Elec       q    Type
REMARK                         _______ _______ _______ _____ _____    ______ ____
ROOT
ATOM      1  O   HOH     1       4.320  -2.692   9.612  0.00  0.00    +0.000 OA
ENDROOT
TORSDOF 0
REMARK  Name = ../refined-set-2016/1k6c/1k6c_pocket.pdb
REMARK  240 active torsions:
REMARK  status: ('A' for Active; 'I' for Inactive)
REMARK    1  A    between atoms: _1  and  _3
REMARK    2  A    between atoms: _3  and  _4
REMARK    3  A    between atoms: _3  and  _6
REMARK    4  A    between atoms: _6  and  _7
REMARK    5  A    between atoms: _7  and  _8
REMARK    6  A    between atoms: _8  and  _9
REMARK    7  A    between atoms: _18  and  _20
REMARK    8  A    between atoms: _20  and  _21
REMARK    9  A    between atoms: _20  and  _23
REMARK   10  A    between atoms: _23  and  _24
REMARK   11  A    between atoms: _27  and  _29
REMARK   12  A    between atoms: _29  and  _30
REMARK   13  A    between atoms: _29  and  _32
REMARK   14  A    between atoms: _32  and  _33
REMARK   15  A    between atoms: _36  and  _38
REMARK   16  A    between atoms: _38  and  _39
REMARK   17  A    between atoms: _38  and  _41
REMARK   18  A    between atoms: _41  and  _42
REMARK   19  A    between atoms: _45  and  _47
REMARK   20  A    between atoms: _47  and  _48
REMARK   21  A    between atoms: _47  and  _50
REMARK   22  A    between atoms: _50  and  _51
REMARK   23  A    between atoms: _54  and  _56
REMARK   24  A    between atoms: _56  and  _57
REMARK   25  A    between atoms: _56  and  _59
REMARK   26  A    between atoms: _59  and  _60
REMARK   27  A    between atoms: _63  and  _65
REMARK   28  A    between atoms: _65  and  _66
REMARK   29  A    between atoms: _68  and  _70
REMARK   30  A    between atoms: _70  and  _71
REMARK   31  A    between atoms: _74  and  _76
REMARK   32  A    between atoms: _76  and  _77
REMARK   33  A    between atoms: _76  and  _79
REMARK   34  A    between atoms: _79  and  _80
REMARK   35  A    between atoms: _83  and  _85
REMARK   36  A    between atoms: _85  and  _86
REMARK   37  A    between atoms: _85  and  _88
REMARK   38  A    between atoms: _88  and  _89
REMARK   39  A    between atoms: _92  and  _94
REMARK   40  A    between atoms: _94  and  _95
REMARK   41  A    between atoms: _94  and  _97
REMARK   42  A    between atoms: _97  and  _98
REMARK   43  A    between atoms: _101  and  _103
REMARK   44  A    between atoms: _103  and  _104
REMARK   45  A    between atoms: _103  and  _106
REMARK   46  A    between atoms: _109  and  _111
REMARK   47  A    between atoms: _111  and  _112
REMARK   48  A    between atoms: _111  and  _114
REMARK   49  A    between atoms: _114  and  _115
REMARK   50  A    between atoms: _118  and  _120
REMARK   51  A    between atoms: _120  and  _121
REMARK   52  A    between atoms: _120  and  _123
REMARK   53  A    between atoms: _123  and  _124
REMARK   54  A    between atoms: _124  and  _125
REMARK   55  A    between atoms: _125  and  _126
REMARK   56  A    between atoms: _126  and  _127
REMARK   57  A    between atoms: _131  and  _133
REMARK   58  A    between atoms: _133  and  _134
REMARK   59  A    between atoms: _133  and  _136
REMARK   60  A    between atoms: _136  and  _137
REMARK   61  A    between atoms: _137  and  _138
REMARK   62  A    between atoms: _140  and  _142
REMARK   63  A    between atoms: _142  and  _143
REMARK   64  A    between atoms: _142  and  _145
REMARK   65  A    between atoms: _145  and  _146
REMARK   66  A    between atoms: _149  and  _151
REMARK   67  A    between atoms: _151  and  _152
REMARK   68  A    between atoms: _154  and  _156
REMARK   69  A    between atoms: _156  and  _157
REMARK   70  A    between atoms: _159  and  _161
REMARK   71  A    between atoms: _161  and  _162
REMARK   72  A    between atoms: _161  and  _164
REMARK   73  A    between atoms: _164  and  _165
REMARK   74  A    between atoms: _168  and  _170
REMARK   75  A    between atoms: _170  and  _171
REMARK   76  A    between atoms: _173  and  _175
REMARK   77  A    between atoms: _175  and  _176
REMARK   78  A    between atoms: _178  and  _180
REMARK   79  A    between atoms: _180  and  _181
REMARK   80  A    between atoms: _180  and  _183
REMARK   81  A    between atoms: _183  and  _184
REMARK   82  A    between atoms: _190  and  _192
REMARK   83  A    between atoms: _192  and  _193
REMARK   84  A    between atoms: _192  and  _195
REMARK   85  A    between atoms: _195  and  _196
REMARK   86  A    between atoms: _199  and  _201
REMARK   87  A    between atoms: _201  and  _202
REMARK   88  A    between atoms: _201  and  _204
REMARK   89  A    between atoms: _207  and  _209
REMARK   90  A    between atoms: _209  and  _210
REMARK   91  A    between atoms: _209  and  _212
REMARK   92  A    between atoms: _212  and  _213
REMARK   93  A    between atoms: _216  and  _218
REMARK   94  A    between atoms: _218  and  _219
REMARK   95  A    between atoms: _218  and  _221
REMARK   96  A    between atoms: _221  and  _222
REMARK   97  A    between atoms: _226  and  _227
REMARK   98  A    between atoms: _232  and  _234
REMARK   99  A    between atoms: _234  and  _235
REMARK  100  A    between atoms: _234  and  _237
REMARK  101  A    between atoms: _237  and  _238
REMARK  102  A    between atoms: _241  and  _243
REMARK  103  A    between atoms: _243  and  _244
REMARK  104  A    between atoms: _243  and  _246
REMARK  105  A    between atoms: _246  and  _247
REMARK  106  A    between atoms: _252  and  _254
REMARK  107  A    between atoms: _254  and  _255
REMARK  108  A    between atoms: _254  and  _257
REMARK  109  A    between atoms: _260  and  _262
REMARK  110  A    between atoms: _262  and  _263
REMARK  111  A    between atoms: _262  and  _265
REMARK  112  A    between atoms: _265  and  _266
REMARK  113  A    between atoms: _269  and  _271
REMARK  114  A    between atoms: _271  and  _272
REMARK  115  A    between atoms: _274  and  _276
REMARK  116  A    between atoms: _276  and  _277
REMARK  117  A    between atoms: _276  and  _279
REMARK  118  A    between atoms: _279  and  _280
REMARK  119  A    between atoms: _280  and  _281
REMARK  120  A    between atoms: _281  and  _282
REMARK  121  A    between atoms: _291  and  _293
REMARK  122  A    between atoms: _293  and  _294
REMARK  123  A    between atoms: _293  and  _296
REMARK  124  A    between atoms: _296  and  _297
REMARK  125  A    between atoms: _297  and  _298
REMARK  126  A    between atoms: _298  and  _299
REMARK  127  A    between atoms: _308  and  _310
REMARK  128  A    between atoms: _310  and  _311
REMARK  129  A    between atoms: _310  and  _313
REMARK  130  A    between atoms: _313  and  _314
REMARK  131  A    between atoms: _317  and  _319
REMARK  132  A    between atoms: _319  and  _320
REMARK  133  A    between atoms: _319  and  _322
REMARK  134  A    between atoms: _322  and  _323
REMARK  135  A    between atoms: _326  and  _328
REMARK  136  A    between atoms: _328  and  _329
REMARK  137  A    between atoms: _328  and  _331
REMARK  138  A    between atoms: _331  and  _332
REMARK  139  A    between atoms: _335  and  _337
REMARK  140  A    between atoms: _337  and  _338
REMARK  141  A    between atoms: _337  and  _340
REMARK  142  A    between atoms: _340  and  _341
REMARK  143  A    between atoms: _344  and  _346
REMARK  144  A    between atoms: _346  and  _347
REMARK  145  A    between atoms: _349  and  _351
REMARK  146  A    between atoms: _351  and  _352
REMARK  147  A    between atoms: _355  and  _357
REMARK  148  A    between atoms: _357  and  _358
REMARK  149  A    between atoms: _357  and  _360
REMARK  150  A    between atoms: _360  and  _361
REMARK  151  A    between atoms: _364  and  _366
REMARK  152  A    between atoms: _366  and  _367
REMARK  153  A    between atoms: _366  and  _369
REMARK  154  A    between atoms: _369  and  _370
REMARK  155  A    between atoms: _373  and  _375
REMARK  156  A    between atoms: _375  and  _376
REMARK  157  A    between atoms: _375  and  _378
REMARK  158  A    between atoms: _378  and  _379
REMARK  159  A    between atoms: _382  and  _384
REMARK  160  A    between atoms: _384  and  _385
REMARK  161  A    between atoms: _384  and  _387
REMARK  162  A    between atoms: _390  and  _392
REMARK  163  A    between atoms: _392  and  _393
REMARK  164  A    between atoms: _392  and  _395
REMARK  165  A    between atoms: _395  and  _396
REMARK  166  A    between atoms: _399  and  _401
REMARK  167  A    between atoms: _401  and  _402
REMARK  168  A    between atoms: _401  and  _404
REMARK  169  A    between atoms: _404  and  _405
REMARK  170  A    between atoms: _405  and  _406
REMARK  171  A    between atoms: _406  and  _407
REMARK  172  A    between atoms: _407  and  _408
REMARK  173  A    between atoms: _412  and  _414
REMARK  174  A    between atoms: _414  and  _415
REMARK  175  A    between atoms: _414  and  _417
REMARK  176  A    between atoms: _417  and  _418
REMARK  177  A    between atoms: _418  and  _419
REMARK  178  A    between atoms: _421  and  _423
REMARK  179  A    between atoms: _423  and  _424
REMARK  180  A    between atoms: _423  and  _426
REMARK  181  A    between atoms: _426  and  _427
REMARK  182  A    between atoms: _430  and  _432
REMARK  183  A    between atoms: _432  and  _433
REMARK  184  A    between atoms: _435  and  _437
REMARK  185  A    between atoms: _437  and  _438
REMARK  186  A    between atoms: _440  and  _442
REMARK  187  A    between atoms: _442  and  _443
REMARK  188  A    between atoms: _442  and  _445
REMARK  189  A    between atoms: _445  and  _446
REMARK  190  A    between atoms: _449  and  _451
REMARK  191  A    between atoms: _451  and  _452
REMARK  192  A    between atoms: _454  and  _456
REMARK  193  A    between atoms: _456  and  _457
REMARK  194  A    between atoms: _459  and  _461
REMARK  195  A    between atoms: _461  and  _462
REMARK  196  A    between atoms: _461  and  _464
REMARK  197  A    between atoms: _464  and  _465
REMARK  198  A    between atoms: _471  and  _473
REMARK  199  A    between atoms: _473  and  _474
REMARK  200  A    between atoms: _473  and  _476
REMARK  201  A    between atoms: _476  and  _477
REMARK  202  A    between atoms: _480  and  _482
REMARK  203  A    between atoms: _482  and  _483
REMARK  204  A    between atoms: _482  and  _485
REMARK  205  A    between atoms: _488  and  _490
REMARK  206  A    between atoms: _490  and  _491
REMARK  207  A    between atoms: _490  and  _493
REMARK  208  A    between atoms: _493  and  _494
REMARK  209  A    between atoms: _497  and  _499
REMARK  210  A    between atoms: _499  and  _500
REMARK  211  A    between atoms: _499  and  _502
REMARK  212  A    between atoms: _502  and  _503
REMARK  213  A    between atoms: _507  and  _508
REMARK  214  A    between atoms: _513  and  _515
REMARK  215  A    between atoms: _515  and  _516
REMARK  216  A    between atoms: _515  and  _518
REMARK  217  A    between atoms: _518  and  _519
REMARK  218  A    between atoms: _522  and  _524
REMARK  219  A    between atoms: _524  and  _525
REMARK  220  A    between atoms: _524  and  _527
REMARK  221  A    between atoms: _527  and  _528
REMARK  222  A    between atoms: _533  and  _535
REMARK  223  A    between atoms: _535  and  _536
REMARK  224  A    between atoms: _535  and  _538
REMARK  225  A    between atoms: _541  and  _543
REMARK  226  A    between atoms: _543  and  _544
REMARK  227  A    between atoms: _543  and  _546
REMARK  228  A    between atoms: _546  and  _547
REMARK  229  A    between atoms: _550  and  _552
REMARK  230  A    between atoms: _552  and  _553
REMARK  231  A    between atoms: _555  and  _557
REMARK  232  A    between atoms: _557  and  _558
REMARK  233  A    between atoms: _557  and  _560
REMARK  234  A    between atoms: _560  and  _561
REMARK  235  A    between atoms: _561  and  _562
REMARK  236  A    between atoms: _562  and  _563
REMARK  237  A    between atoms: _572  and  _574
REMARK  238  A    between atoms: _574  and  _575
REMARK  239  A    between atoms: _574  and  _577
REMARK  240  A    between atoms: _577  and  _578
REMARK                            x       y       z     vdW  Elec       q    Type
REMARK                         _______ _______ _______ _____ _____    ______ ____
ROOT
ATOM      1  O   HOH     1       0.850  -7.961  10.614  0.00  0.00    +0.000 OA
ENDROOT
TORSDOF 0
REMARK  Name = ../refined-set-2016/1k6c/1k6c_pocket.pdb
REMARK  240 active torsions:
REMARK  status: ('A' for Active; 'I' for Inactive)
REMARK    1  A    between atoms: _1  and  _3
REMARK    2  A    between atoms: _3  and  _4
REMARK    3  A    between atoms: _3  and  _6
REMARK    4  A    between atoms: _6  and  _7
REMARK    5  A    between atoms: _7  and  _8
REMARK    6  A    between atoms: _8  and  _9
REMARK    7  A    between atoms: _18  and  _20
REMARK    8  A    between atoms: _20  and  _21
REMARK    9  A    between atoms: _20  and  _23
REMARK   10  A    between atoms: _23  and  _24
REMARK   11  A    between atoms: _27  and  _29
REMARK   12  A    between atoms: _29  and  _30
REMARK   13  A    between atoms: _29  and  _32
REMARK   14  A    between atoms: _32  and  _33
REMARK   15  A    between atoms: _36  and  _38
REMARK   16  A    between atoms: _38  and  _39
REMARK   17  A    between atoms: _38  and  _41
REMARK   18  A    between atoms: _41  and  _42
REMARK   19  A    between atoms: _45  and  _47
REMARK   20  A    between atoms: _47  and  _48
REMARK   21  A    between atoms: _47  and  _50
REMARK   22  A    between atoms: _50  and  _51
REMARK   23  A    between atoms: _54  and  _56
REMARK   24  A    between atoms: _56  and  _57
REMARK   25  A    between atoms: _56  and  _59
REMARK   26  A    between atoms: _59  and  _60
REMARK   27  A    between atoms: _63  and  _65
REMARK   28  A    between atoms: _65  and  _66
REMARK   29  A    between atoms: _68  and  _70
REMARK   30  A    between atoms: _70  and  _71
REMARK   31  A    between atoms: _74  and  _76
REMARK   32  A    between atoms: _76  and  _77
REMARK   33  A    between atoms: _76  and  _79
REMARK   34  A    between atoms: _79  and  _80
REMARK   35  A    between atoms: _83  and  _85
REMARK   36  A    between atoms: _85  and  _86
REMARK   37  A    between atoms: _85  and  _88
REMARK   38  A    between atoms: _88  and  _89
REMARK   39  A    between atoms: _92  and  _94
REMARK   40  A    between atoms: _94  and  _95
REMARK   41  A    between atoms: _94  and  _97
REMARK   42  A    between atoms: _97  and  _98
REMARK   43  A    between atoms: _101  and  _103
REMARK   44  A    between atoms: _103  and  _104
REMARK   45  A    between atoms: _103  and  _106
REMARK   46  A    between atoms: _109  and  _111
REMARK   47  A    between atoms: _111  and  _112
REMARK   48  A    between atoms: _111  and  _114
REMARK   49  A    between atoms: _114  and  _115
REMARK   50  A    between atoms: _118  and  _120
REMARK   51  A    between atoms: _120  and  _121
REMARK   52  A    between atoms: _120  and  _123
REMARK   53  A    between atoms: _123  and  _124
REMARK   54  A    between atoms: _124  and  _125
REMARK   55  A    between atoms: _125  and  _126
REMARK   56  A    between atoms: _126  and  _127
REMARK   57  A    between atoms: _131  and  _133
REMARK   58  A    between atoms: _133  and  _134
REMARK   59  A    between atoms: _133  and  _136
REMARK   60  A    between atoms: _136  and  _137
REMARK   61  A    between atoms: _137  and  _138
REMARK   62  A    between atoms: _140  and  _142
REMARK   63  A    between atoms: _142  and  _143
REMARK   64  A    between atoms: _142  and  _145
REMARK   65  A    between atoms: _145  and  _146
REMARK   66  A    between atoms: _149  and  _151
REMARK   67  A    between atoms: _151  and  _152
REMARK   68  A    between atoms: _154  and  _156
REMARK   69  A    between atoms: _156  and  _157
REMARK   70  A    between atoms: _159  and  _161
REMARK   71  A    between atoms: _161  and  _162
REMARK   72  A    between atoms: _161  and  _164
REMARK   73  A    between atoms: _164  and  _165
REMARK   74  A    between atoms: _168  and  _170
REMARK   75  A    between atoms: _170  and  _171
REMARK   76  A    between atoms: _173  and  _175
REMARK   77  A    between atoms: _175  and  _176
REMARK   78  A    between atoms: _178  and  _180
REMARK   79  A    between atoms: _180  and  _181
REMARK   80  A    between atoms: _180  and  _183
REMARK   81  A    between atoms: _183  and  _184
REMARK   82  A    between atoms: _190  and  _192
REMARK   83  A    between atoms: _192  and  _193
REMARK   84  A    between atoms: _192  and  _195
REMARK   85  A    between atoms: _195  and  _196
REMARK   86  A    between atoms: _199  and  _201
REMARK   87  A    between atoms: _201  and  _202
REMARK   88  A    between atoms: _201  and  _204
REMARK   89  A    between atoms: _207  and  _209
REMARK   90  A    between atoms: _209  and  _210
REMARK   91  A    between atoms: _209  and  _212
REMARK   92  A    between atoms: _212  and  _213
REMARK   93  A    between atoms: _216  and  _218
REMARK   94  A    between atoms: _218  and  _219
REMARK   95  A    between atoms: _218  and  _221
REMARK   96  A    between atoms: _221  and  _222
REMARK   97  A    between atoms: _226  and  _227
REMARK   98  A    between atoms: _232  and  _234
REMARK   99  A    between atoms: _234  and  _235
REMARK  100  A    between atoms: _234  and  _237
REMARK  101  A    between atoms: _237  and  _238
REMARK  102  A    between atoms: _241  and  _243
REMARK  103  A    between atoms: _243  and  _244
REMARK  104  A    between atoms: _243  and  _246
REMARK  105  A    between atoms: _246  and  _247
REMARK  106  A    between atoms: _252  and  _254
REMARK  107  A    between atoms: _254  and  _255
REMARK  108  A    between atoms: _254  and  _257
REMARK  109  A    between atoms: _260  and  _262
REMARK  110  A    between atoms: _262  and  _263
REMARK  111  A    between atoms: _262  and  _265
REMARK  112  A    between atoms: _265  and  _266
REMARK  113  A    between atoms: _269  and  _271
REMARK  114  A    between atoms: _271  and  _272
REMARK  115  A    between atoms: _274  and  _276
REMARK  116  A    between atoms: _276  and  _277
REMARK  117  A    between atoms: _276  and  _279
REMARK  118  A    between atoms: _279  and  _280
REMARK  119  A    between atoms: _280  and  _281
REMARK  120  A    between atoms: _281  and  _282
REMARK  121  A    between atoms: _291  and  _293
REMARK  122  A    between atoms: _293  and  _294
REMARK  123  A    between atoms: _293  and  _296
REMARK  124  A    between atoms: _296  and  _297
REMARK  125  A    between atoms: _297  and  _298
REMARK  126  A    between atoms: _298  and  _299
REMARK  127  A    between atoms: _308  and  _310
REMARK  128  A    between atoms: _310  and  _311
REMARK  129  A    between atoms: _310  and  _313
REMARK  130  A    between atoms: _313  and  _314
REMARK  131  A    between atoms: _317  and  _319
REMARK  132  A    between atoms: _319  and  _320
REMARK  133  A    between atoms: _319  and  _322
REMARK  134  A    between atoms: _322  and  _323
REMARK  135  A    between atoms: _326  and  _328
REMARK  136  A    between atoms: _328  and  _329
REMARK  137  A    between atoms: _328  and  _331
REMARK  138  A    between atoms: _331  and  _332
REMARK  139  A    between atoms: _335  and  _337
REMARK  140  A    between atoms: _337  and  _338
REMARK  141  A    between atoms: _337  and  _340
REMARK  142  A    between atoms: _340  and  _341
REMARK  143  A    between atoms: _344  and  _346
REMARK  144  A    between atoms: _346  and  _347
REMARK  145  A    between atoms: _349  and  _351
REMARK  146  A    between atoms: _351  and  _352
REMARK  147  A    between atoms: _355  and  _357
REMARK  148  A    between atoms: _357  and  _358
REMARK  149  A    between atoms: _357  and  _360
REMARK  150  A    between atoms: _360  and  _361
REMARK  151  A    between atoms: _364  and  _366
REMARK  152  A    between atoms: _366  and  _367
REMARK  153  A    between atoms: _366  and  _369
REMARK  154  A    between atoms: _369  and  _370
REMARK  155  A    between atoms: _373  and  _375
REMARK  156  A    between atoms: _375  and  _376
REMARK  157  A    between atoms: _375  and  _378
REMARK  158  A    between atoms: _378  and  _379
REMARK  159  A    between atoms: _382  and  _384
REMARK  160  A    between atoms: _384  and  _385
REMARK  161  A    between atoms: _384  and  _387
REMARK  162  A    between atoms: _390  and  _392
REMARK  163  A    between atoms: _392  and  _393
REMARK  164  A    between atoms: _392  and  _395
REMARK  165  A    between atoms: _395  and  _396
REMARK  166  A    between atoms: _399  and  _401
REMARK  167  A    between atoms: _401  and  _402
REMARK  168  A    between atoms: _401  and  _404
REMARK  169  A    between atoms: _404  and  _405
REMARK  170  A    between atoms: _405  and  _406
REMARK  171  A    between atoms: _406  and  _407
REMARK  172  A    between atoms: _407  and  _408
REMARK  173  A    between atoms: _412  and  _414
REMARK  174  A    between atoms: _414  and  _415
REMARK  175  A    between atoms: _414  and  _417
REMARK  176  A    between atoms: _417  and  _418
REMARK  177  A    between atoms: _418  and  _419
REMARK  178  A    between atoms: _421  and  _423
REMARK  179  A    between atoms: _423  and  _424
REMARK  180  A    between atoms: _423  and  _426
REMARK  181  A    between atoms: _426  and  _427
REMARK  182  A    between atoms: _430  and  _432
REMARK  183  A    between atoms: _432  and  _433
REMARK  184  A    between atoms: _435  and  _437
REMARK  185  A    between atoms: _437  and  _438
REMARK  186  A    between atoms: _440  and  _442
REMARK  187  A    between atoms: _442  and  _443
REMARK  188  A    between atoms: _442  and  _445
REMARK  189  A    between atoms: _445  and  _446
REMARK  190  A    between atoms: _449  and  _451
REMARK  191  A    between atoms: _451  and  _452
REMARK  192  A    between atoms: _454  and  _456
REMARK  193  A    between atoms: _456  and  _457
REMARK  194  A    between atoms: _459  and  _461
REMARK  195  A    between atoms: _461  and  _462
REMARK  196  A    between atoms: _461  and  _464
REMARK  197  A    between atoms: _464  and  _465
REMARK  198  A    between atoms: _471  and  _473
REMARK  199  A    between atoms: _473  and  _474
REMARK  200  A    between atoms: _473  and  _476
REMARK  201  A    between atoms: _476  and  _477
REMARK  202  A    between atoms: _480  and  _482
REMARK  203  A    between atoms: _482  and  _483
REMARK  204  A    between atoms: _482  and  _485
REMARK  205  A    between atoms: _488  and  _490
REMARK  206  A    between atoms: _490  and  _491
REMARK  207  A    between atoms: _490  and  _493
REMARK  208  A    between atoms: _493  and  _494
REMARK  209  A    between atoms: _497  and  _499
REMARK  210  A    between atoms: _499  and  _500
REMARK  211  A    between atoms: _499  and  _502
REMARK  212  A    between atoms: _502  and  _503
REMARK  213  A    between atoms: _507  and  _508
REMARK  214  A    between atoms: _513  and  _515
REMARK  215  A    between atoms: _515  and  _516
REMARK  216  A    between atoms: _515  and  _518
REMARK  217  A    between atoms: _518  and  _519
REMARK  218  A    between atoms: _522  and  _524
REMARK  219  A    between atoms: _524  and  _525
REMARK  220  A    between atoms: _524  and  _527
REMARK  221  A    between atoms: _527  and  _528
REMARK  222  A    between atoms: _533  and  _535
REMARK  223  A    between atoms: _535  and  _536
REMARK  224  A    between atoms: _535  and  _538
REMARK  225  A    between atoms: _541  and  _543
REMARK  226  A    between atoms: _543  and  _544
REMARK  227  A    between atoms: _543  and  _546
REMARK  228  A    between atoms: _546  and  _547
REMARK  229  A    between atoms: _550  and  _552
REMARK  230  A    between atoms: _552  and  _553
REMARK  231  A    between atoms: _555  and  _557
REMARK  232  A    between atoms: _557  and  _558
REMARK  233  A    between atoms: _557  and  _560
REMARK  234  A    between atoms: _560  and  _561
REMARK  235  A    between atoms: _561  and  _562
REMARK  236  A    between atoms: _562  and  _563
REMARK  237  A    between atoms: _572  and  _574
REMARK  238  A    between atoms: _574  and  _575
REMARK  239  A    between atoms: _574  and  _577
REMARK  240  A    between atoms: _577  and  _578
REMARK                            x       y       z     vdW  Elec       q    Type
REMARK                         _______ _______ _______ _____ _____    ______ ____
ROOT
ATOM      1  O   HOH     1       9.230  -9.672  19.597  0.00  0.00    +0.000 OA
ENDROOT
TORSDOF 0
REMARK  Name = ../refined-set-2016/1k6c/1k6c_pocket.pdb
REMARK  240 active torsions:
REMARK  status: ('A' for Active; 'I' for Inactive)
REMARK    1  A    between atoms: _1  and  _3
REMARK    2  A    between atoms: _3  and  _4
REMARK    3  A    between atoms: _3  and  _6
REMARK    4  A    between atoms: _6  and  _7
REMARK    5  A    between atoms: _7  and  _8
REMARK    6  A    between atoms: _8  and  _9
REMARK    7  A    between atoms: _18  and  _20
REMARK    8  A    between atoms: _20  and  _21
REMARK    9  A    between atoms: _20  and  _23
REMARK   10  A    between atoms: _23  and  _24
REMARK   11  A    between atoms: _27  and  _29
REMARK   12  A    between atoms: _29  and  _30
REMARK   13  A    between atoms: _29  and  _32
REMARK   14  A    between atoms: _32  and  _33
REMARK   15  A    between atoms: _36  and  _38
REMARK   16  A    between atoms: _38  and  _39
REMARK   17  A    between atoms: _38  and  _41
REMARK   18  A    between atoms: _41  and  _42
REMARK   19  A    between atoms: _45  and  _47
REMARK   20  A    between atoms: _47  and  _48
REMARK   21  A    between atoms: _47  and  _50
REMARK   22  A    between atoms: _50  and  _51
REMARK   23  A    between atoms: _54  and  _56
REMARK   24  A    between atoms: _56  and  _57
REMARK   25  A    between atoms: _56  and  _59
REMARK   26  A    between atoms: _59  and  _60
REMARK   27  A    between atoms: _63  and  _65
REMARK   28  A    between atoms: _65  and  _66
REMARK   29  A    between atoms: _68  and  _70
REMARK   30  A    between atoms: _70  and  _71
REMARK   31  A    between atoms: _74  and  _76
REMARK   32  A    between atoms: _76  and  _77
REMARK   33  A    between atoms: _76  and  _79
REMARK   34  A    between atoms: _79  and  _80
REMARK   35  A    between atoms: _83  and  _85
REMARK   36  A    between atoms: _85  and  _86
REMARK   37  A    between atoms: _85  and  _88
REMARK   38  A    between atoms: _88  and  _89
REMARK   39  A    between atoms: _92  and  _94
REMARK   40  A    between atoms: _94  and  _95
REMARK   41  A    between atoms: _94  and  _97
REMARK   42  A    between atoms: _97  and  _98
REMARK   43  A    between atoms: _101  and  _103
REMARK   44  A    between atoms: _103  and  _104
REMARK   45  A    between atoms: _103  and  _106
REMARK   46  A    between atoms: _109  and  _111
REMARK   47  A    between atoms: _111  and  _112
REMARK   48  A    between atoms: _111  and  _114
REMARK   49  A    between atoms: _114  and  _115
REMARK   50  A    between atoms: _118  and  _120
REMARK   51  A    between atoms: _120  and  _121
REMARK   52  A    between atoms: _120  and  _123
REMARK   53  A    between atoms: _123  and  _124
REMARK   54  A    between atoms: _124  and  _125
REMARK   55  A    between atoms: _125  and  _126
REMARK   56  A    between atoms: _126  and  _127
REMARK   57  A    between atoms: _131  and  _133
REMARK   58  A    between atoms: _133  and  _134
REMARK   59  A    between atoms: _133  and  _136
REMARK   60  A    between atoms: _136  and  _137
REMARK   61  A    between atoms: _137  and  _138
REMARK   62  A    between atoms: _140  and  _142
REMARK   63  A    between atoms: _142  and  _143
REMARK   64  A    between atoms: _142  and  _145
REMARK   65  A    between atoms: _145  and  _146
REMARK   66  A    between atoms: _149  and  _151
REMARK   67  A    between atoms: _151  and  _152
REMARK   68  A    between atoms: _154  and  _156
REMARK   69  A    between atoms: _156  and  _157
REMARK   70  A    between atoms: _159  and  _161
REMARK   71  A    between atoms: _161  and  _162
REMARK   72  A    between atoms: _161  and  _164
REMARK   73  A    between atoms: _164  and  _165
REMARK   74  A    between atoms: _168  and  _170
REMARK   75  A    between atoms: _170  and  _171
REMARK   76  A    between atoms: _173  and  _175
REMARK   77  A    between atoms: _175  and  _176
REMARK   78  A    between atoms: _178  and  _180
REMARK   79  A    between atoms: _180  and  _181
REMARK   80  A    between atoms: _180  and  _183
REMARK   81  A    between atoms: _183  and  _184
REMARK   82  A    between atoms: _190  and  _192
REMARK   83  A    between atoms: _192  and  _193
REMARK   84  A    between atoms: _192  and  _195
REMARK   85  A    between atoms: _195  and  _196
REMARK   86  A    between atoms: _199  and  _201
REMARK   87  A    between atoms: _201  and  _202
REMARK   88  A    between atoms: _201  and  _204
REMARK   89  A    between atoms: _207  and  _209
REMARK   90  A    between atoms: _209  and  _210
REMARK   91  A    between atoms: _209  and  _212
REMARK   92  A    between atoms: _212  and  _213
REMARK   93  A    between atoms: _216  and  _218
REMARK   94  A    between atoms: _218  and  _219
REMARK   95  A    between atoms: _218  and  _221
REMARK   96  A    between atoms: _221  and  _222
REMARK   97  A    between atoms: _226  and  _227
REMARK   98  A    between atoms: _232  and  _234
REMARK   99  A    between atoms: _234  and  _235
REMARK  100  A    between atoms: _234  and  _237
REMARK  101  A    between atoms: _237  and  _238
REMARK  102  A    between atoms: _241  and  _243
REMARK  103  A    between atoms: _243  and  _244
REMARK  104  A    between atoms: _243  and  _246
REMARK  105  A    between atoms: _246  and  _247
REMARK  106  A    between atoms: _252  and  _254
REMARK  107  A    between atoms: _254  and  _255
REMARK  108  A    between atoms: _254  and  _257
REMARK  109  A    between atoms: _260  and  _262
REMARK  110  A    between atoms: _262  and  _263
REMARK  111  A    between atoms: _262  and  _265
REMARK  112  A    between atoms: _265  and  _266
REMARK  113  A    between atoms: _269  and  _271
REMARK  114  A    between atoms: _271  and  _272
REMARK  115  A    between atoms: _274  and  _276
REMARK  116  A    between atoms: _276  and  _277
REMARK  117  A    between atoms: _276  and  _279
REMARK  118  A    between atoms: _279  and  _280
REMARK  119  A    between atoms: _280  and  _281
REMARK  120  A    between atoms: _281  and  _282
REMARK  121  A    between atoms: _291  and  _293
REMARK  122  A    between atoms: _293  and  _294
REMARK  123  A    between atoms: _293  and  _296
REMARK  124  A    between atoms: _296  and  _297
REMARK  125  A    between atoms: _297  and  _298
REMARK  126  A    between atoms: _298  and  _299
REMARK  127  A    between atoms: _308  and  _310
REMARK  128  A    between atoms: _310  and  _311
REMARK  129  A    between atoms: _310  and  _313
REMARK  130  A    between atoms: _313  and  _314
REMARK  131  A    between atoms: _317  and  _319
REMARK  132  A    between atoms: _319  and  _320
REMARK  133  A    between atoms: _319  and  _322
REMARK  134  A    between atoms: _322  and  _323
REMARK  135  A    between atoms: _326  and  _328
REMARK  136  A    between atoms: _328  and  _329
REMARK  137  A    between atoms: _328  and  _331
REMARK  138  A    between atoms: _331  and  _332
REMARK  139  A    between atoms: _335  and  _337
REMARK  140  A    between atoms: _337  and  _338
REMARK  141  A    between atoms: _337  and  _340
REMARK  142  A    between atoms: _340  and  _341
REMARK  143  A    between atoms: _344  and  _346
REMARK  144  A    between atoms: _346  and  _347
REMARK  145  A    between atoms: _349  and  _351
REMARK  146  A    between atoms: _351  and  _352
REMARK  147  A    between atoms: _355  and  _357
REMARK  148  A    between atoms: _357  and  _358
REMARK  149  A    between atoms: _357  and  _360
REMARK  150  A    between atoms: _360  and  _361
REMARK  151  A    between atoms: _364  and  _366
REMARK  152  A    between atoms: _366  and  _367
REMARK  153  A    between atoms: _366  and  _369
REMARK  154  A    between atoms: _369  and  _370
REMARK  155  A    between atoms: _373  and  _375
REMARK  156  A    between atoms: _375  and  _376
REMARK  157  A    between atoms: _375  and  _378
REMARK  158  A    between atoms: _378  and  _379
REMARK  159  A    between atoms: _382  and  _384
REMARK  160  A    between atoms: _384  and  _385
REMARK  161  A    between atoms: _384  and  _387
REMARK  162  A    between atoms: _390  and  _392
REMARK  163  A    between atoms: _392  and  _393
REMARK  164  A    between atoms: _392  and  _395
REMARK  165  A    between atoms: _395  and  _396
REMARK  166  A    between atoms: _399  and  _401
REMARK  167  A    between atoms: _401  and  _402
REMARK  168  A    between atoms: _401  and  _404
REMARK  169  A    between atoms: _404  and  _405
REMARK  170  A    between atoms: _405  and  _406
REMARK  171  A    between atoms: _406  and  _407
REMARK  172  A    between atoms: _407  and  _408
REMARK  173  A    between atoms: _412  and  _414
REMARK  174  A    between atoms: _414  and  _415
REMARK  175  A    between atoms: _414  and  _417
REMARK  176  A    between atoms: _417  and  _418
REMARK  177  A    between atoms: _418  and  _419
REMARK  178  A    between atoms: _421  and  _423
REMARK  179  A    between atoms: _423  and  _424
REMARK  180  A    between atoms: _423  and  _426
REMARK  181  A    between atoms: _426  and  _427
REMARK  182  A    between atoms: _430  and  _432
REMARK  183  A    between atoms: _432  and  _433
REMARK  184  A    between atoms: _435  and  _437
REMARK  185  A    between atoms: _437  and  _438
REMARK  186  A    between atoms: _440  and  _442
REMARK  187  A    between atoms: _442  and  _443
REMARK  188  A    between atoms: _442  and  _445
REMARK  189  A    between atoms: _445  and  _446
REMARK  190  A    between atoms: _449  and  _451
REMARK  191  A    between atoms: _451  and  _452
REMARK  192  A    between atoms: _454  and  _456
REMARK  193  A    between atoms: _456  and  _457
REMARK  194  A    between atoms: _459  and  _461
REMARK  195  A    between atoms: _461  and  _462
REMARK  196  A    between atoms: _461  and  _464
REMARK  197  A    between atoms: _464  and  _465
REMARK  198  A    between atoms: _471  and  _473
REMARK  199  A    between atoms: _473  and  _474
REMARK  200  A    between atoms: _473  and  _476
REMARK  201  A    between atoms: _476  and  _477
REMARK  202  A    between atoms: _480  and  _482
REMARK  203  A    between atoms: _482  and  _483
REMARK  204  A    between atoms: _482  and  _485
REMARK  205  A    between atoms: _488  and  _490
REMARK  206  A    between atoms: _490  and  _491
REMARK  207  A    between atoms: _490  and  _493
REMARK  208  A    between atoms: _493  and  _494
REMARK  209  A    between atoms: _497  and  _499
REMARK  210  A    between atoms: _499  and  _500
REMARK  211  A    between atoms: _499  and  _502
REMARK  212  A    between atoms: _502  and  _503
REMARK  213  A    between atoms: _507  and  _508
REMARK  214  A    between atoms: _513  and  _515
REMARK  215  A    between atoms: _515  and  _516
REMARK  216  A    between atoms: _515  and  _518
REMARK  217  A    between atoms: _518  and  _519
REMARK  218  A    between atoms: _522  and  _524
REMARK  219  A    between atoms: _524  and  _525
REMARK  220  A    between atoms: _524  and  _527
REMARK  221  A    between atoms: _527  and  _528
REMARK  222  A    between atoms: _533  and  _535
REMARK  223  A    between atoms: _535  and  _536
REMARK  224  A    between atoms: _535  and  _538
REMARK  225  A    between atoms: _541  and  _543
REMARK  226  A    between atoms: _543  and  _544
REMARK  227  A    between atoms: _543  and  _546
REMARK  228  A    between atoms: _546  and  _547
REMARK  229  A    between atoms: _550  and  _552
REMARK  230  A    between atoms: _552  and  _553
REMARK  231  A    between atoms: _555  and  _557
REMARK  232  A    between atoms: _557  and  _558
REMARK  233  A    between atoms: _557  and  _560
REMARK  234  A    between atoms: _560  and  _561
REMARK  235  A    between atoms: _561  and  _562
REMARK  236  A    between atoms: _562  and  _563
REMARK  237  A    between atoms: _572  and  _574
REMARK  238  A    between atoms: _574  and  _575
REMARK  239  A    between atoms: _574  and  _577
REMARK  240  A    between atoms: _577  and  _578
REMARK                            x       y       z     vdW  Elec       q    Type
REMARK                         _______ _______ _______ _____ _____    ______ ____
ROOT
ATOM      1  O   HOH     1       4.848   7.455  15.242  0.00  0.00    +0.000 OA
ENDROOT
TORSDOF 0
REMARK  Name = ../refined-set-2016/1k6c/1k6c_pocket.pdb
REMARK  240 active torsions:
REMARK  status: ('A' for Active; 'I' for Inactive)
REMARK    1  A    between atoms: _1  and  _3
REMARK    2  A    between atoms: _3  and  _4
REMARK    3  A    between atoms: _3  and  _6
REMARK    4  A    between atoms: _6  and  _7
REMARK    5  A    between atoms: _7  and  _8
REMARK    6  A    between atoms: _8  and  _9
REMARK    7  A    between atoms: _18  and  _20
REMARK    8  A    between atoms: _20  and  _21
REMARK    9  A    between atoms: _20  and  _23
REMARK   10  A    between atoms: _23  and  _24
REMARK   11  A    between atoms: _27  and  _29
REMARK   12  A    between atoms: _29  and  _30
REMARK   13  A    between atoms: _29  and  _32
REMARK   14  A    between atoms: _32  and  _33
REMARK   15  A    between atoms: _36  and  _38
REMARK   16  A    between atoms: _38  and  _39
REMARK   17  A    between atoms: _38  and  _41
REMARK   18  A    between atoms: _41  and  _42
REMARK   19  A    between atoms: _45  and  _47
REMARK   20  A    between atoms: _47  and  _48
REMARK   21  A    between atoms: _47  and  _50
REMARK   22  A    between atoms: _50  and  _51
REMARK   23  A    between atoms: _54  and  _56
REMARK   24  A    between atoms: _56  and  _57
REMARK   25  A    between atoms: _56  and  _59
REMARK   26  A    between atoms: _59  and  _60
REMARK   27  A    between atoms: _63  and  _65
REMARK   28  A    between atoms: _65  and  _66
REMARK   29  A    between atoms: _68  and  _70
REMARK   30  A    between atoms: _70  and  _71
REMARK   31  A    between atoms: _74  and  _76
REMARK   32  A    between atoms: _76  and  _77
REMARK   33  A    between atoms: _76  and  _79
REMARK   34  A    between atoms: _79  and  _80
REMARK   35  A    between atoms: _83  and  _85
REMARK   36  A    between atoms: _85  and  _86
REMARK   37  A    between atoms: _85  and  _88
REMARK   38  A    between atoms: _88  and  _89
REMARK   39  A    between atoms: _92  and  _94
REMARK   40  A    between atoms: _94  and  _95
REMARK   41  A    between atoms: _94  and  _97
REMARK   42  A    between atoms: _97  and  _98
REMARK   43  A    between atoms: _101  and  _103
REMARK   44  A    between atoms: _103  and  _104
REMARK   45  A    between atoms: _103  and  _106
REMARK   46  A    between atoms: _109  and  _111
REMARK   47  A    between atoms: _111  and  _112
REMARK   48  A    between atoms: _111  and  _114
REMARK   49  A    between atoms: _114  and  _115
REMARK   50  A    between atoms: _118  and  _120
REMARK   51  A    between atoms: _120  and  _121
REMARK   52  A    between atoms: _120  and  _123
REMARK   53  A    between atoms: _123  and  _124
REMARK   54  A    between atoms: _124  and  _125
REMARK   55  A    between atoms: _125  and  _126
REMARK   56  A    between atoms: _126  and  _127
REMARK   57  A    between atoms: _131  and  _133
REMARK   58  A    between atoms: _133  and  _134
REMARK   59  A    between atoms: _133  and  _136
REMARK   60  A    between atoms: _136  and  _137
REMARK   61  A    between atoms: _137  and  _138
REMARK   62  A    between atoms: _140  and  _142
REMARK   63  A    between atoms: _142  and  _143
REMARK   64  A    between atoms: _142  and  _145
REMARK   65  A    between atoms: _145  and  _146
REMARK   66  A    between atoms: _149  and  _151
REMARK   67  A    between atoms: _151  and  _152
REMARK   68  A    between atoms: _154  and  _156
REMARK   69  A    between atoms: _156  and  _157
REMARK   70  A    between atoms: _159  and  _161
REMARK   71  A    between atoms: _161  and  _162
REMARK   72  A    between atoms: _161  and  _164
REMARK   73  A    between atoms: _164  and  _165
REMARK   74  A    between atoms: _168  and  _170
REMARK   75  A    between atoms: _170  and  _171
REMARK   76  A    between atoms: _173  and  _175
REMARK   77  A    between atoms: _175  and  _176
REMARK   78  A    between atoms: _178  and  _180
REMARK   79  A    between atoms: _180  and  _181
REMARK   80  A    between atoms: _180  and  _183
REMARK   81  A    between atoms: _183  and  _184
REMARK   82  A    between atoms: _190  and  _192
REMARK   83  A    between atoms: _192  and  _193
REMARK   84  A    between atoms: _192  and  _195
REMARK   85  A    between atoms: _195  and  _196
REMARK   86  A    between atoms: _199  and  _201
REMARK   87  A    between atoms: _201  and  _202
REMARK   88  A    between atoms: _201  and  _204
REMARK   89  A    between atoms: _207  and  _209
REMARK   90  A    between atoms: _209  and  _210
REMARK   91  A    between atoms: _209  and  _212
REMARK   92  A    between atoms: _212  and  _213
REMARK   93  A    between atoms: _216  and  _218
REMARK   94  A    between atoms: _218  and  _219
REMARK   95  A    between atoms: _218  and  _221
REMARK   96  A    between atoms: _221  and  _222
REMARK   97  A    between atoms: _226  and  _227
REMARK   98  A    between atoms: _232  and  _234
REMARK   99  A    between atoms: _234  and  _235
REMARK  100  A    between atoms: _234  and  _237
REMARK  101  A    between atoms: _237  and  _238
REMARK  102  A    between atoms: _241  and  _243
REMARK  103  A    between atoms: _243  and  _244
REMARK  104  A    between atoms: _243  and  _246
REMARK  105  A    between atoms: _246  and  _247
REMARK  106  A    between atoms: _252  and  _254
REMARK  107  A    between atoms: _254  and  _255
REMARK  108  A    between atoms: _254  and  _257
REMARK  109  A    between atoms: _260  and  _262
REMARK  110  A    between atoms: _262  and  _263
REMARK  111  A    between atoms: _262  and  _265
REMARK  112  A    between atoms: _265  and  _266
REMARK  113  A    between atoms: _269  and  _271
REMARK  114  A    between atoms: _271  and  _272
REMARK  115  A    between atoms: _274  and  _276
REMARK  116  A    between atoms: _276  and  _277
REMARK  117  A    between atoms: _276  and  _279
REMARK  118  A    between atoms: _279  and  _280
REMARK  119  A    between atoms: _280  and  _281
REMARK  120  A    between atoms: _281  and  _282
REMARK  121  A    between atoms: _291  and  _293
REMARK  122  A    between atoms: _293  and  _294
REMARK  123  A    between atoms: _293  and  _296
REMARK  124  A    between atoms: _296  and  _297
REMARK  125  A    between atoms: _297  and  _298
REMARK  126  A    between atoms: _298  and  _299
REMARK  127  A    between atoms: _308  and  _310
REMARK  128  A    between atoms: _310  and  _311
REMARK  129  A    between atoms: _310  and  _313
REMARK  130  A    between atoms: _313  and  _314
REMARK  131  A    between atoms: _317  and  _319
REMARK  132  A    between atoms: _319  and  _320
REMARK  133  A    between atoms: _319  and  _322
REMARK  134  A    between atoms: _322  and  _323
REMARK  135  A    between atoms: _326  and  _328
REMARK  136  A    between atoms: _328  and  _329
REMARK  137  A    between atoms: _328  and  _331
REMARK  138  A    between atoms: _331  and  _332
REMARK  139  A    between atoms: _335  and  _337
REMARK  140  A    between atoms: _337  and  _338
REMARK  141  A    between atoms: _337  and  _340
REMARK  142  A    between atoms: _340  and  _341
REMARK  143  A    between atoms: _344  and  _346
REMARK  144  A    between atoms: _346  and  _347
REMARK  145  A    between atoms: _349  and  _351
REMARK  146  A    between atoms: _351  and  _352
REMARK  147  A    between atoms: _355  and  _357
REMARK  148  A    between atoms: _357  and  _358
REMARK  149  A    between atoms: _357  and  _360
REMARK  150  A    between atoms: _360  and  _361
REMARK  151  A    between atoms: _364  and  _366
REMARK  152  A    between atoms: _366  and  _367
REMARK  153  A    between atoms: _366  and  _369
REMARK  154  A    between atoms: _369  and  _370
REMARK  155  A    between atoms: _373  and  _375
REMARK  156  A    between atoms: _375  and  _376
REMARK  157  A    between atoms: _375  and  _378
REMARK  158  A    between atoms: _378  and  _379
REMARK  159  A    between atoms: _382  and  _384
REMARK  160  A    between atoms: _384  and  _385
REMARK  161  A    between atoms: _384  and  _387
REMARK  162  A    between atoms: _390  and  _392
REMARK  163  A    between atoms: _392  and  _393
REMARK  164  A    between atoms: _392  and  _395
REMARK  165  A    between atoms: _395  and  _396
REMARK  166  A    between atoms: _399  and  _401
REMARK  167  A    between atoms: _401  and  _402
REMARK  168  A    between atoms: _401  and  _404
REMARK  169  A    between atoms: _404  and  _405
REMARK  170  A    between atoms: _405  and  _406
REMARK  171  A    between atoms: _406  and  _407
REMARK  172  A    between atoms: _407  and  _408
REMARK  173  A    between atoms: _412  and  _414
REMARK  174  A    between atoms: _414  and  _415
REMARK  175  A    between atoms: _414  and  _417
REMARK  176  A    between atoms: _417  and  _418
REMARK  177  A    between atoms: _418  and  _419
REMARK  178  A    between atoms: _421  and  _423
REMARK  179  A    between atoms: _423  and  _424
REMARK  180  A    between atoms: _423  and  _426
REMARK  181  A    between atoms: _426  and  _427
REMARK  182  A    between atoms: _430  and  _432
REMARK  183  A    between atoms: _432  and  _433
REMARK  184  A    between atoms: _435  and  _437
REMARK  185  A    between atoms: _437  and  _438
REMARK  186  A    between atoms: _440  and  _442
REMARK  187  A    between atoms: _442  and  _443
REMARK  188  A    between atoms: _442  and  _445
REMARK  189  A    between atoms: _445  and  _446
REMARK  190  A    between atoms: _449  and  _451
REMARK  191  A    between atoms: _451  and  _452
REMARK  192  A    between atoms: _454  and  _456
REMARK  193  A    between atoms: _456  and  _457
REMARK  194  A    between atoms: _459  and  _461
REMARK  195  A    between atoms: _461  and  _462
REMARK  196  A    between atoms: _461  and  _464
REMARK  197  A    between atoms: _464  and  _465
REMARK  198  A    between atoms: _471  and  _473
REMARK  199  A    between atoms: _473  and  _474
REMARK  200  A    between atoms: _473  and  _476
REMARK  201  A    between atoms: _476  and  _477
REMARK  202  A    between atoms: _480  and  _482
REMARK  203  A    between atoms: _482  and  _483
REMARK  204  A    between atoms: _482  and  _485
REMARK  205  A    between atoms: _488  and  _490
REMARK  206  A    between atoms: _490  and  _491
REMARK  207  A    between atoms: _490  and  _493
REMARK  208  A    between atoms: _493  and  _494
REMARK  209  A    between atoms: _497  and  _499
REMARK  210  A    between atoms: _499  and  _500
REMARK  211  A    between atoms: _499  and  _502
REMARK  212  A    between atoms: _502  and  _503
REMARK  213  A    between atoms: _507  and  _508
REMARK  214  A    between atoms: _513  and  _515
REMARK  215  A    between atoms: _515  and  _516
REMARK  216  A    between atoms: _515  and  _518
REMARK  217  A    between atoms: _518  and  _519
REMARK  218  A    between atoms: _522  and  _524
REMARK  219  A    between atoms: _524  and  _525
REMARK  220  A    between atoms: _524  and  _527
REMARK  221  A    between atoms: _527  and  _528
REMARK  222  A    between atoms: _533  and  _535
REMARK  223  A    between atoms: _535  and  _536
REMARK  224  A    between atoms: _535  and  _538
REMARK  225  A    between atoms: _541  and  _543
REMARK  226  A    between atoms: _543  and  _544
REMARK  227  A    between atoms: _543  and  _546
REMARK  228  A    between atoms: _546  and  _547
REMARK  229  A    between atoms: _550  and  _552
REMARK  230  A    between atoms: _552  and  _553
REMARK  231  A    between atoms: _555  and  _557
REMARK  232  A    between atoms: _557  and  _558
REMARK  233  A    between atoms: _557  and  _560
REMARK  234  A    between atoms: _560  and  _561
REMARK  235  A    between atoms: _561  and  _562
REMARK  236  A    between atoms: _562  and  _563
REMARK  237  A    between atoms: _572  and  _574
REMARK  238  A    between atoms: _574  and  _575
REMARK  239  A    between atoms: _574  and  _577
REMARK  240  A    between atoms: _577  and  _578
REMARK                            x       y       z     vdW  Elec       q    Type
REMARK                         _______ _______ _______ _____ _____    ______ ____
ROOT
ATOM      1  O   HOH     1       5.688  -3.030  11.988  0.00  0.00    +0.000 OA
ENDROOT
TORSDOF 0
REMARK  Name = ../refined-set-2016/1k6c/1k6c_pocket.pdb
REMARK  240 active torsions:
REMARK  status: ('A' for Active; 'I' for Inactive)
REMARK    1  A    between atoms: _1  and  _3
REMARK    2  A    between atoms: _3  and  _4
REMARK    3  A    between atoms: _3  and  _6
REMARK    4  A    between atoms: _6  and  _7
REMARK    5  A    between atoms: _7  and  _8
REMARK    6  A    between atoms: _8  and  _9
REMARK    7  A    between atoms: _18  and  _20
REMARK    8  A    between atoms: _20  and  _21
REMARK    9  A    between atoms: _20  and  _23
REMARK   10  A    between atoms: _23  and  _24
REMARK   11  A    between atoms: _27  and  _29
REMARK   12  A    between atoms: _29  and  _30
REMARK   13  A    between atoms: _29  and  _32
REMARK   14  A    between atoms: _32  and  _33
REMARK   15  A    between atoms: _36  and  _38
REMARK   16  A    between atoms: _38  and  _39
REMARK   17  A    between atoms: _38  and  _41
REMARK   18  A    between atoms: _41  and  _42
REMARK   19  A    between atoms: _45  and  _47
REMARK   20  A    between atoms: _47  and  _48
REMARK   21  A    between atoms: _47  and  _50
REMARK   22  A    between atoms: _50  and  _51
REMARK   23  A    between atoms: _54  and  _56
REMARK   24  A    between atoms: _56  and  _57
REMARK   25  A    between atoms: _56  and  _59
REMARK   26  A    between atoms: _59  and  _60
REMARK   27  A    between atoms: _63  and  _65
REMARK   28  A    between atoms: _65  and  _66
REMARK   29  A    between atoms: _68  and  _70
REMARK   30  A    between atoms: _70  and  _71
REMARK   31  A    between atoms: _74  and  _76
REMARK   32  A    between atoms: _76  and  _77
REMARK   33  A    between atoms: _76  and  _79
REMARK   34  A    between atoms: _79  and  _80
REMARK   35  A    between atoms: _83  and  _85
REMARK   36  A    between atoms: _85  and  _86
REMARK   37  A    between atoms: _85  and  _88
REMARK   38  A    between atoms: _88  and  _89
REMARK   39  A    between atoms: _92  and  _94
REMARK   40  A    between atoms: _94  and  _95
REMARK   41  A    between atoms: _94  and  _97
REMARK   42  A    between atoms: _97  and  _98
REMARK   43  A    between atoms: _101  and  _103
REMARK   44  A    between atoms: _103  and  _104
REMARK   45  A    between atoms: _103  and  _106
REMARK   46  A    between atoms: _109  and  _111
REMARK   47  A    between atoms: _111  and  _112
REMARK   48  A    between atoms: _111  and  _114
REMARK   49  A    between atoms: _114  and  _115
REMARK   50  A    between atoms: _118  and  _120
REMARK   51  A    between atoms: _120  and  _121
REMARK   52  A    between atoms: _120  and  _123
REMARK   53  A    between atoms: _123  and  _124
REMARK   54  A    between atoms: _124  and  _125
REMARK   55  A    between atoms: _125  and  _126
REMARK   56  A    between atoms: _126  and  _127
REMARK   57  A    between atoms: _131  and  _133
REMARK   58  A    between atoms: _133  and  _134
REMARK   59  A    between atoms: _133  and  _136
REMARK   60  A    between atoms: _136  and  _137
REMARK   61  A    between atoms: _137  and  _138
REMARK   62  A    between atoms: _140  and  _142
REMARK   63  A    between atoms: _142  and  _143
REMARK   64  A    between atoms: _142  and  _145
REMARK   65  A    between atoms: _145  and  _146
REMARK   66  A    between atoms: _149  and  _151
REMARK   67  A    between atoms: _151  and  _152
REMARK   68  A    between atoms: _154  and  _156
REMARK   69  A    between atoms: _156  and  _157
REMARK   70  A    between atoms: _159  and  _161
REMARK   71  A    between atoms: _161  and  _162
REMARK   72  A    between atoms: _161  and  _164
REMARK   73  A    between atoms: _164  and  _165
REMARK   74  A    between atoms: _168  and  _170
REMARK   75  A    between atoms: _170  and  _171
REMARK   76  A    between atoms: _173  and  _175
REMARK   77  A    between atoms: _175  and  _176
REMARK   78  A    between atoms: _178  and  _180
REMARK   79  A    between atoms: _180  and  _181
REMARK   80  A    between atoms: _180  and  _183
REMARK   81  A    between atoms: _183  and  _184
REMARK   82  A    between atoms: _190  and  _192
REMARK   83  A    between atoms: _192  and  _193
REMARK   84  A    between atoms: _192  and  _195
REMARK   85  A    between atoms: _195  and  _196
REMARK   86  A    between atoms: _199  and  _201
REMARK   87  A    between atoms: _201  and  _202
REMARK   88  A    between atoms: _201  and  _204
REMARK   89  A    between atoms: _207  and  _209
REMARK   90  A    between atoms: _209  and  _210
REMARK   91  A    between atoms: _209  and  _212
REMARK   92  A    between atoms: _212  and  _213
REMARK   93  A    between atoms: _216  and  _218
REMARK   94  A    between atoms: _218  and  _219
REMARK   95  A    between atoms: _218  and  _221
REMARK   96  A    between atoms: _221  and  _222
REMARK   97  A    between atoms: _226  and  _227
REMARK   98  A    between atoms: _232  and  _234
REMARK   99  A    between atoms: _234  and  _235
REMARK  100  A    between atoms: _234  and  _237
REMARK  101  A    between atoms: _237  and  _238
REMARK  102  A    between atoms: _241  and  _243
REMARK  103  A    between atoms: _243  and  _244
REMARK  104  A    between atoms: _243  and  _246
REMARK  105  A    between atoms: _246  and  _247
REMARK  106  A    between atoms: _252  and  _254
REMARK  107  A    between atoms: _254  and  _255
REMARK  108  A    between atoms: _254  and  _257
REMARK  109  A    between atoms: _260  and  _262
REMARK  110  A    between atoms: _262  and  _263
REMARK  111  A    between atoms: _262  and  _265
REMARK  112  A    between atoms: _265  and  _266
REMARK  113  A    between atoms: _269  and  _271
REMARK  114  A    between atoms: _271  and  _272
REMARK  115  A    between atoms: _274  and  _276
REMARK  116  A    between atoms: _276  and  _277
REMARK  117  A    between atoms: _276  and  _279
REMARK  118  A    between atoms: _279  and  _280
REMARK  119  A    between atoms: _280  and  _281
REMARK  120  A    between atoms: _281  and  _282
REMARK  121  A    between atoms: _291  and  _293
REMARK  122  A    between atoms: _293  and  _294
REMARK  123  A    between atoms: _293  and  _296
REMARK  124  A    between atoms: _296  and  _297
REMARK  125  A    between atoms: _297  and  _298
REMARK  126  A    between atoms: _298  and  _299
REMARK  127  A    between atoms: _308  and  _310
REMARK  128  A    between atoms: _310  and  _311
REMARK  129  A    between atoms: _310  and  _313
REMARK  130  A    between atoms: _313  and  _314
REMARK  131  A    between atoms: _317  and  _319
REMARK  132  A    between atoms: _319  and  _320
REMARK  133  A    between atoms: _319  and  _322
REMARK  134  A    between atoms: _322  and  _323
REMARK  135  A    between atoms: _326  and  _328
REMARK  136  A    between atoms: _328  and  _329
REMARK  137  A    between atoms: _328  and  _331
REMARK  138  A    between atoms: _331  and  _332
REMARK  139  A    between atoms: _335  and  _337
REMARK  140  A    between atoms: _337  and  _338
REMARK  141  A    between atoms: _337  and  _340
REMARK  142  A    between atoms: _340  and  _341
REMARK  143  A    between atoms: _344  and  _346
REMARK  144  A    between atoms: _346  and  _347
REMARK  145  A    between atoms: _349  and  _351
REMARK  146  A    between atoms: _351  and  _352
REMARK  147  A    between atoms: _355  and  _357
REMARK  148  A    between atoms: _357  and  _358
REMARK  149  A    between atoms: _357  and  _360
REMARK  150  A    between atoms: _360  and  _361
REMARK  151  A    between atoms: _364  and  _366
REMARK  152  A    between atoms: _366  and  _367
REMARK  153  A    between atoms: _366  and  _369
REMARK  154  A    between atoms: _369  and  _370
REMARK  155  A    between atoms: _373  and  _375
REMARK  156  A    between atoms: _375  and  _376
REMARK  157  A    between atoms: _375  and  _378
REMARK  158  A    between atoms: _378  and  _379
REMARK  159  A    between atoms: _382  and  _384
REMARK  160  A    between atoms: _384  and  _385
REMARK  161  A    between atoms: _384  and  _387
REMARK  162  A    between atoms: _390  and  _392
REMARK  163  A    between atoms: _392  and  _393
REMARK  164  A    between atoms: _392  and  _395
REMARK  165  A    between atoms: _395  and  _396
REMARK  166  A    between atoms: _399  and  _401
REMARK  167  A    between atoms: _401  and  _402
REMARK  168  A    between atoms: _401  and  _404
REMARK  169  A    between atoms: _404  and  _405
REMARK  170  A    between atoms: _405  and  _406
REMARK  171  A    between atoms: _406  and  _407
REMARK  172  A    between atoms: _407  and  _408
REMARK  173  A    between atoms: _412  and  _414
REMARK  174  A    between atoms: _414  and  _415
REMARK  175  A    between atoms: _414  and  _417
REMARK  176  A    between atoms: _417  and  _418
REMARK  177  A    between atoms: _418  and  _419
REMARK  178  A    between atoms: _421  and  _423
REMARK  179  A    between atoms: _423  and  _424
REMARK  180  A    between atoms: _423  and  _426
REMARK  181  A    between atoms: _426  and  _427
REMARK  182  A    between atoms: _430  and  _432
REMARK  183  A    between atoms: _432  and  _433
REMARK  184  A    between atoms: _435  and  _437
REMARK  185  A    between atoms: _437  and  _438
REMARK  186  A    between atoms: _440  and  _442
REMARK  187  A    between atoms: _442  and  _443
REMARK  188  A    between atoms: _442  and  _445
REMARK  189  A    between atoms: _445  and  _446
REMARK  190  A    between atoms: _449  and  _451
REMARK  191  A    between atoms: _451  and  _452
REMARK  192  A    between atoms: _454  and  _456
REMARK  193  A    between atoms: _456  and  _457
REMARK  194  A    between atoms: _459  and  _461
REMARK  195  A    between atoms: _461  and  _462
REMARK  196  A    between atoms: _461  and  _464
REMARK  197  A    between atoms: _464  and  _465
REMARK  198  A    between atoms: _471  and  _473
REMARK  199  A    between atoms: _473  and  _474
REMARK  200  A    between atoms: _473  and  _476
REMARK  201  A    between atoms: _476  and  _477
REMARK  202  A    between atoms: _480  and  _482
REMARK  203  A    between atoms: _482  and  _483
REMARK  204  A    between atoms: _482  and  _485
REMARK  205  A    between atoms: _488  and  _490
REMARK  206  A    between atoms: _490  and  _491
REMARK  207  A    between atoms: _490  and  _493
REMARK  208  A    between atoms: _493  and  _494
REMARK  209  A    between atoms: _497  and  _499
REMARK  210  A    between atoms: _499  and  _500
REMARK  211  A    between atoms: _499  and  _502
REMARK  212  A    between atoms: _502  and  _503
REMARK  213  A    between atoms: _507  and  _508
REMARK  214  A    between atoms: _513  and  _515
REMARK  215  A    between atoms: _515  and  _516
REMARK  216  A    between atoms: _515  and  _518
REMARK  217  A    between atoms: _518  and  _519
REMARK  218  A    between atoms: _522  and  _524
REMARK  219  A    between atoms: _524  and  _525
REMARK  220  A    between atoms: _524  and  _527
REMARK  221  A    between atoms: _527  and  _528
REMARK  222  A    between atoms: _533  and  _535
REMARK  223  A    between atoms: _535  and  _536
REMARK  224  A    between atoms: _535  and  _538
REMARK  225  A    between atoms: _541  and  _543
REMARK  226  A    between atoms: _543  and  _544
REMARK  227  A    between atoms: _543  and  _546
REMARK  228  A    between atoms: _546  and  _547
REMARK  229  A    between atoms: _550  and  _552
REMARK  230  A    between atoms: _552  and  _553
REMARK  231  A    between atoms: _555  and  _557
REMARK  232  A    between atoms: _557  and  _558
REMARK  233  A    between atoms: _557  and  _560
REMARK  234  A    between atoms: _560  and  _561
REMARK  235  A    between atoms: _561  and  _562
REMARK  236  A    between atoms: _562  and  _563
REMARK  237  A    between atoms: _572  and  _574
REMARK  238  A    between atoms: _574  and  _575
REMARK  239  A    between atoms: _574  and  _577
REMARK  240  A    between atoms: _577  and  _578
REMARK                            x       y       z     vdW  Elec       q    Type
REMARK                         _______ _______ _______ _____ _____    ______ ____
ROOT
ATOM      1  O   HOH     1      -5.942   5.643  12.142  0.00  0.00    +0.000 OA
ENDROOT
TORSDOF 0
REMARK  Name = ../refined-set-2016/1k6c/1k6c_pocket.pdb
REMARK  240 active torsions:
REMARK  status: ('A' for Active; 'I' for Inactive)
REMARK    1  A    between atoms: _1  and  _3
REMARK    2  A    between atoms: _3  and  _4
REMARK    3  A    between atoms: _3  and  _6
REMARK    4  A    between atoms: _6  and  _7
REMARK    5  A    between atoms: _7  and  _8
REMARK    6  A    between atoms: _8  and  _9
REMARK    7  A    between atoms: _18  and  _20
REMARK    8  A    between atoms: _20  and  _21
REMARK    9  A    between atoms: _20  and  _23
REMARK   10  A    between atoms: _23  and  _24
REMARK   11  A    between atoms: _27  and  _29
REMARK   12  A    between atoms: _29  and  _30
REMARK   13  A    between atoms: _29  and  _32
REMARK   14  A    between atoms: _32  and  _33
REMARK   15  A    between atoms: _36  and  _38
REMARK   16  A    between atoms: _38  and  _39
REMARK   17  A    between atoms: _38  and  _41
REMARK   18  A    between atoms: _41  and  _42
REMARK   19  A    between atoms: _45  and  _47
REMARK   20  A    between atoms: _47  and  _48
REMARK   21  A    between atoms: _47  and  _50
REMARK   22  A    between atoms: _50  and  _51
REMARK   23  A    between atoms: _54  and  _56
REMARK   24  A    between atoms: _56  and  _57
REMARK   25  A    between atoms: _56  and  _59
REMARK   26  A    between atoms: _59  and  _60
REMARK   27  A    between atoms: _63  and  _65
REMARK   28  A    between atoms: _65  and  _66
REMARK   29  A    between atoms: _68  and  _70
REMARK   30  A    between atoms: _70  and  _71
REMARK   31  A    between atoms: _74  and  _76
REMARK   32  A    between atoms: _76  and  _77
REMARK   33  A    between atoms: _76  and  _79
REMARK   34  A    between atoms: _79  and  _80
REMARK   35  A    between atoms: _83  and  _85
REMARK   36  A    between atoms: _85  and  _86
REMARK   37  A    between atoms: _85  and  _88
REMARK   38  A    between atoms: _88  and  _89
REMARK   39  A    between atoms: _92  and  _94
REMARK   40  A    between atoms: _94  and  _95
REMARK   41  A    between atoms: _94  and  _97
REMARK   42  A    between atoms: _97  and  _98
REMARK   43  A    between atoms: _101  and  _103
REMARK   44  A    between atoms: _103  and  _104
REMARK   45  A    between atoms: _103  and  _106
REMARK   46  A    between atoms: _109  and  _111
REMARK   47  A    between atoms: _111  and  _112
REMARK   48  A    between atoms: _111  and  _114
REMARK   49  A    between atoms: _114  and  _115
REMARK   50  A    between atoms: _118  and  _120
REMARK   51  A    between atoms: _120  and  _121
REMARK   52  A    between atoms: _120  and  _123
REMARK   53  A    between atoms: _123  and  _124
REMARK   54  A    between atoms: _124  and  _125
REMARK   55  A    between atoms: _125  and  _126
REMARK   56  A    between atoms: _126  and  _127
REMARK   57  A    between atoms: _131  and  _133
REMARK   58  A    between atoms: _133  and  _134
REMARK   59  A    between atoms: _133  and  _136
REMARK   60  A    between atoms: _136  and  _137
REMARK   61  A    between atoms: _137  and  _138
REMARK   62  A    between atoms: _140  and  _142
REMARK   63  A    between atoms: _142  and  _143
REMARK   64  A    between atoms: _142  and  _145
REMARK   65  A    between atoms: _145  and  _146
REMARK   66  A    between atoms: _149  and  _151
REMARK   67  A    between atoms: _151  and  _152
REMARK   68  A    between atoms: _154  and  _156
REMARK   69  A    between atoms: _156  and  _157
REMARK   70  A    between atoms: _159  and  _161
REMARK   71  A    between atoms: _161  and  _162
REMARK   72  A    between atoms: _161  and  _164
REMARK   73  A    between atoms: _164  and  _165
REMARK   74  A    between atoms: _168  and  _170
REMARK   75  A    between atoms: _170  and  _171
REMARK   76  A    between atoms: _173  and  _175
REMARK   77  A    between atoms: _175  and  _176
REMARK   78  A    between atoms: _178  and  _180
REMARK   79  A    between atoms: _180  and  _181
REMARK   80  A    between atoms: _180  and  _183
REMARK   81  A    between atoms: _183  and  _184
REMARK   82  A    between atoms: _190  and  _192
REMARK   83  A    between atoms: _192  and  _193
REMARK   84  A    between atoms: _192  and  _195
REMARK   85  A    between atoms: _195  and  _196
REMARK   86  A    between atoms: _199  and  _201
REMARK   87  A    between atoms: _201  and  _202
REMARK   88  A    between atoms: _201  and  _204
REMARK   89  A    between atoms: _207  and  _209
REMARK   90  A    between atoms: _209  and  _210
REMARK   91  A    between atoms: _209  and  _212
REMARK   92  A    between atoms: _212  and  _213
REMARK   93  A    between atoms: _216  and  _218
REMARK   94  A    between atoms: _218  and  _219
REMARK   95  A    between atoms: _218  and  _221
REMARK   96  A    between atoms: _221  and  _222
REMARK   97  A    between atoms: _226  and  _227
REMARK   98  A    between atoms: _232  and  _234
REMARK   99  A    between atoms: _234  and  _235
REMARK  100  A    between atoms: _234  and  _237
REMARK  101  A    between atoms: _237  and  _238
REMARK  102  A    between atoms: _241  and  _243
REMARK  103  A    between atoms: _243  and  _244
REMARK  104  A    between atoms: _243  and  _246
REMARK  105  A    between atoms: _246  and  _247
REMARK  106  A    between atoms: _252  and  _254
REMARK  107  A    between atoms: _254  and  _255
REMARK  108  A    between atoms: _254  and  _257
REMARK  109  A    between atoms: _260  and  _262
REMARK  110  A    between atoms: _262  and  _263
REMARK  111  A    between atoms: _262  and  _265
REMARK  112  A    between atoms: _265  and  _266
REMARK  113  A    between atoms: _269  and  _271
REMARK  114  A    between atoms: _271  and  _272
REMARK  115  A    between atoms: _274  and  _276
REMARK  116  A    between atoms: _276  and  _277
REMARK  117  A    between atoms: _276  and  _279
REMARK  118  A    between atoms: _279  and  _280
REMARK  119  A    between atoms: _280  and  _281
REMARK  120  A    between atoms: _281  and  _282
REMARK  121  A    between atoms: _291  and  _293
REMARK  122  A    between atoms: _293  and  _294
REMARK  123  A    between atoms: _293  and  _296
REMARK  124  A    between atoms: _296  and  _297
REMARK  125  A    between atoms: _297  and  _298
REMARK  126  A    between atoms: _298  and  _299
REMARK  127  A    between atoms: _308  and  _310
REMARK  128  A    between atoms: _310  and  _311
REMARK  129  A    between atoms: _310  and  _313
REMARK  130  A    between atoms: _313  and  _314
REMARK  131  A    between atoms: _317  and  _319
REMARK  132  A    between atoms: _319  and  _320
REMARK  133  A    between atoms: _319  and  _322
REMARK  134  A    between atoms: _322  and  _323
REMARK  135  A    between atoms: _326  and  _328
REMARK  136  A    between atoms: _328  and  _329
REMARK  137  A    between atoms: _328  and  _331
REMARK  138  A    between atoms: _331  and  _332
REMARK  139  A    between atoms: _335  and  _337
REMARK  140  A    between atoms: _337  and  _338
REMARK  141  A    between atoms: _337  and  _340
REMARK  142  A    between atoms: _340  and  _341
REMARK  143  A    between atoms: _344  and  _346
REMARK  144  A    between atoms: _346  and  _347
REMARK  145  A    between atoms: _349  and  _351
REMARK  146  A    between atoms: _351  and  _352
REMARK  147  A    between atoms: _355  and  _357
REMARK  148  A    between atoms: _357  and  _358
REMARK  149  A    between atoms: _357  and  _360
REMARK  150  A    between atoms: _360  and  _361
REMARK  151  A    between atoms: _364  and  _366
REMARK  152  A    between atoms: _366  and  _367
REMARK  153  A    between atoms: _366  and  _369
REMARK  154  A    between atoms: _369  and  _370
REMARK  155  A    between atoms: _373  and  _375
REMARK  156  A    between atoms: _375  and  _376
REMARK  157  A    between atoms: _375  and  _378
REMARK  158  A    between atoms: _378  and  _379
REMARK  159  A    between atoms: _382  and  _384
REMARK  160  A    between atoms: _384  and  _385
REMARK  161  A    between atoms: _384  and  _387
REMARK  162  A    between atoms: _390  and  _392
REMARK  163  A    between atoms: _392  and  _393
REMARK  164  A    between atoms: _392  and  _395
REMARK  165  A    between atoms: _395  and  _396
REMARK  166  A    between atoms: _399  and  _401
REMARK  167  A    between atoms: _401  and  _402
REMARK  168  A    between atoms: _401  and  _404
REMARK  169  A    between atoms: _404  and  _405
REMARK  170  A    between atoms: _405  and  _406
REMARK  171  A    between atoms: _406  and  _407
REMARK  172  A    between atoms: _407  and  _408
REMARK  173  A    between atoms: _412  and  _414
REMARK  174  A    between atoms: _414  and  _415
REMARK  175  A    between atoms: _414  and  _417
REMARK  176  A    between atoms: _417  and  _418
REMARK  177  A    between atoms: _418  and  _419
REMARK  178  A    between atoms: _421  and  _423
REMARK  179  A    between atoms: _423  and  _424
REMARK  180  A    between atoms: _423  and  _426
REMARK  181  A    between atoms: _426  and  _427
REMARK  182  A    between atoms: _430  and  _432
REMARK  183  A    between atoms: _432  and  _433
REMARK  184  A    between atoms: _435  and  _437
REMARK  185  A    between atoms: _437  and  _438
REMARK  186  A    between atoms: _440  and  _442
REMARK  187  A    between atoms: _442  and  _443
REMARK  188  A    between atoms: _442  and  _445
REMARK  189  A    between atoms: _445  and  _446
REMARK  190  A    between atoms: _449  and  _451
REMARK  191  A    between atoms: _451  and  _452
REMARK  192  A    between atoms: _454  and  _456
REMARK  193  A    between atoms: _456  and  _457
REMARK  194  A    between atoms: _459  and  _461
REMARK  195  A    between atoms: _461  and  _462
REMARK  196  A    between atoms: _461  and  _464
REMARK  197  A    between atoms: _464  and  _465
REMARK  198  A    between atoms: _471  and  _473
REMARK  199  A    between atoms: _473  and  _474
REMARK  200  A    between atoms: _473  and  _476
REMARK  201  A    between atoms: _476  and  _477
REMARK  202  A    between atoms: _480  and  _482
REMARK  203  A    between atoms: _482  and  _483
REMARK  204  A    between atoms: _482  and  _485
REMARK  205  A    between atoms: _488  and  _490
REMARK  206  A    between atoms: _490  and  _491
REMARK  207  A    between atoms: _490  and  _493
REMARK  208  A    between atoms: _493  and  _494
REMARK  209  A    between atoms: _497  and  _499
REMARK  210  A    between atoms: _499  and  _500
REMARK  211  A    between atoms: _499  and  _502
REMARK  212  A    between atoms: _502  and  _503
REMARK  213  A    between atoms: _507  and  _508
REMARK  214  A    between atoms: _513  and  _515
REMARK  215  A    between atoms: _515  and  _516
REMARK  216  A    between atoms: _515  and  _518
REMARK  217  A    between atoms: _518  and  _519
REMARK  218  A    between atoms: _522  and  _524
REMARK  219  A    between atoms: _524  and  _525
REMARK  220  A    between atoms: _524  and  _527
REMARK  221  A    between atoms: _527  and  _528
REMARK  222  A    between atoms: _533  and  _535
REMARK  223  A    between atoms: _535  and  _536
REMARK  224  A    between atoms: _535  and  _538
REMARK  225  A    between atoms: _541  and  _543
REMARK  226  A    between atoms: _543  and  _544
REMARK  227  A    between atoms: _543  and  _546
REMARK  228  A    between atoms: _546  and  _547
REMARK  229  A    between atoms: _550  and  _552
REMARK  230  A    between atoms: _552  and  _553
REMARK  231  A    between atoms: _555  and  _557
REMARK  232  A    between atoms: _557  and  _558
REMARK  233  A    between atoms: _557  and  _560
REMARK  234  A    between atoms: _560  and  _561
REMARK  235  A    between atoms: _561  and  _562
REMARK  236  A    between atoms: _562  and  _563
REMARK  237  A    between atoms: _572  and  _574
REMARK  238  A    between atoms: _574  and  _575
REMARK  239  A    between atoms: _574  and  _577
REMARK  240  A    between atoms: _577  and  _578
REMARK                            x       y       z     vdW  Elec       q    Type
REMARK                         _______ _______ _______ _____ _____    ______ ____
ROOT
ATOM      1  O   HOH     1       2.033   3.541   5.576  0.00  0.00    +0.000 OA
ENDROOT
TORSDOF 0
REMARK  Name = ../refined-set-2016/1k6c/1k6c_pocket.pdb
REMARK  240 active torsions:
REMARK  status: ('A' for Active; 'I' for Inactive)
REMARK    1  A    between atoms: _1  and  _3
REMARK    2  A    between atoms: _3  and  _4
REMARK    3  A    between atoms: _3  and  _6
REMARK    4  A    between atoms: _6  and  _7
REMARK    5  A    between atoms: _7  and  _8
REMARK    6  A    between atoms: _8  and  _9
REMARK    7  A    between atoms: _18  and  _20
REMARK    8  A    between atoms: _20  and  _21
REMARK    9  A    between atoms: _20  and  _23
REMARK   10  A    between atoms: _23  and  _24
REMARK   11  A    between atoms: _27  and  _29
REMARK   12  A    between atoms: _29  and  _30
REMARK   13  A    between atoms: _29  and  _32
REMARK   14  A    between atoms: _32  and  _33
REMARK   15  A    between atoms: _36  and  _38
REMARK   16  A    between atoms: _38  and  _39
REMARK   17  A    between atoms: _38  and  _41
REMARK   18  A    between atoms: _41  and  _42
REMARK   19  A    between atoms: _45  and  _47
REMARK   20  A    between atoms: _47  and  _48
REMARK   21  A    between atoms: _47  and  _50
REMARK   22  A    between atoms: _50  and  _51
REMARK   23  A    between atoms: _54  and  _56
REMARK   24  A    between atoms: _56  and  _57
REMARK   25  A    between atoms: _56  and  _59
REMARK   26  A    between atoms: _59  and  _60
REMARK   27  A    between atoms: _63  and  _65
REMARK   28  A    between atoms: _65  and  _66
REMARK   29  A    between atoms: _68  and  _70
REMARK   30  A    between atoms: _70  and  _71
REMARK   31  A    between atoms: _74  and  _76
REMARK   32  A    between atoms: _76  and  _77
REMARK   33  A    between atoms: _76  and  _79
REMARK   34  A    between atoms: _79  and  _80
REMARK   35  A    between atoms: _83  and  _85
REMARK   36  A    between atoms: _85  and  _86
REMARK   37  A    between atoms: _85  and  _88
REMARK   38  A    between atoms: _88  and  _89
REMARK   39  A    between atoms: _92  and  _94
REMARK   40  A    between atoms: _94  and  _95
REMARK   41  A    between atoms: _94  and  _97
REMARK   42  A    between atoms: _97  and  _98
REMARK   43  A    between atoms: _101  and  _103
REMARK   44  A    between atoms: _103  and  _104
REMARK   45  A    between atoms: _103  and  _106
REMARK   46  A    between atoms: _109  and  _111
REMARK   47  A    between atoms: _111  and  _112
REMARK   48  A    between atoms: _111  and  _114
REMARK   49  A    between atoms: _114  and  _115
REMARK   50  A    between atoms: _118  and  _120
REMARK   51  A    between atoms: _120  and  _121
REMARK   52  A    between atoms: _120  and  _123
REMARK   53  A    between atoms: _123  and  _124
REMARK   54  A    between atoms: _124  and  _125
REMARK   55  A    between atoms: _125  and  _126
REMARK   56  A    between atoms: _126  and  _127
REMARK   57  A    between atoms: _131  and  _133
REMARK   58  A    between atoms: _133  and  _134
REMARK   59  A    between atoms: _133  and  _136
REMARK   60  A    between atoms: _136  and  _137
REMARK   61  A    between atoms: _137  and  _138
REMARK   62  A    between atoms: _140  and  _142
REMARK   63  A    between atoms: _142  and  _143
REMARK   64  A    between atoms: _142  and  _145
REMARK   65  A    between atoms: _145  and  _146
REMARK   66  A    between atoms: _149  and  _151
REMARK   67  A    between atoms: _151  and  _152
REMARK   68  A    between atoms: _154  and  _156
REMARK   69  A    between atoms: _156  and  _157
REMARK   70  A    between atoms: _159  and  _161
REMARK   71  A    between atoms: _161  and  _162
REMARK   72  A    between atoms: _161  and  _164
REMARK   73  A    between atoms: _164  and  _165
REMARK   74  A    between atoms: _168  and  _170
REMARK   75  A    between atoms: _170  and  _171
REMARK   76  A    between atoms: _173  and  _175
REMARK   77  A    between atoms: _175  and  _176
REMARK   78  A    between atoms: _178  and  _180
REMARK   79  A    between atoms: _180  and  _181
REMARK   80  A    between atoms: _180  and  _183
REMARK   81  A    between atoms: _183  and  _184
REMARK   82  A    between atoms: _190  and  _192
REMARK   83  A    between atoms: _192  and  _193
REMARK   84  A    between atoms: _192  and  _195
REMARK   85  A    between atoms: _195  and  _196
REMARK   86  A    between atoms: _199  and  _201
REMARK   87  A    between atoms: _201  and  _202
REMARK   88  A    between atoms: _201  and  _204
REMARK   89  A    between atoms: _207  and  _209
REMARK   90  A    between atoms: _209  and  _210
REMARK   91  A    between atoms: _209  and  _212
REMARK   92  A    between atoms: _212  and  _213
REMARK   93  A    between atoms: _216  and  _218
REMARK   94  A    between atoms: _218  and  _219
REMARK   95  A    between atoms: _218  and  _221
REMARK   96  A    between atoms: _221  and  _222
REMARK   97  A    between atoms: _226  and  _227
REMARK   98  A    between atoms: _232  and  _234
REMARK   99  A    between atoms: _234  and  _235
REMARK  100  A    between atoms: _234  and  _237
REMARK  101  A    between atoms: _237  and  _238
REMARK  102  A    between atoms: _241  and  _243
REMARK  103  A    between atoms: _243  and  _244
REMARK  104  A    between atoms: _243  and  _246
REMARK  105  A    between atoms: _246  and  _247
REMARK  106  A    between atoms: _252  and  _254
REMARK  107  A    between atoms: _254  and  _255
REMARK  108  A    between atoms: _254  and  _257
REMARK  109  A    between atoms: _260  and  _262
REMARK  110  A    between atoms: _262  and  _263
REMARK  111  A    between atoms: _262  and  _265
REMARK  112  A    between atoms: _265  and  _266
REMARK  113  A    between atoms: _269  and  _271
REMARK  114  A    between atoms: _271  and  _272
REMARK  115  A    between atoms: _274  and  _276
REMARK  116  A    between atoms: _276  and  _277
REMARK  117  A    between atoms: _276  and  _279
REMARK  118  A    between atoms: _279  and  _280
REMARK  119  A    between atoms: _280  and  _281
REMARK  120  A    between atoms: _281  and  _282
REMARK  121  A    between atoms: _291  and  _293
REMARK  122  A    between atoms: _293  and  _294
REMARK  123  A    between atoms: _293  and  _296
REMARK  124  A    between atoms: _296  and  _297
REMARK  125  A    between atoms: _297  and  _298
REMARK  126  A    between atoms: _298  and  _299
REMARK  127  A    between atoms: _308  and  _310
REMARK  128  A    between atoms: _310  and  _311
REMARK  129  A    between atoms: _310  and  _313
REMARK  130  A    between atoms: _313  and  _314
REMARK  131  A    between atoms: _317  and  _319
REMARK  132  A    between atoms: _319  and  _320
REMARK  133  A    between atoms: _319  and  _322
REMARK  134  A    between atoms: _322  and  _323
REMARK  135  A    between atoms: _326  and  _328
REMARK  136  A    between atoms: _328  and  _329
REMARK  137  A    between atoms: _328  and  _331
REMARK  138  A    between atoms: _331  and  _332
REMARK  139  A    between atoms: _335  and  _337
REMARK  140  A    between atoms: _337  and  _338
REMARK  141  A    between atoms: _337  and  _340
REMARK  142  A    between atoms: _340  and  _341
REMARK  143  A    between atoms: _344  and  _346
REMARK  144  A    between atoms: _346  and  _347
REMARK  145  A    between atoms: _349  and  _351
REMARK  146  A    between atoms: _351  and  _352
REMARK  147  A    between atoms: _355  and  _357
REMARK  148  A    between atoms: _357  and  _358
REMARK  149  A    between atoms: _357  and  _360
REMARK  150  A    between atoms: _360  and  _361
REMARK  151  A    between atoms: _364  and  _366
REMARK  152  A    between atoms: _366  and  _367
REMARK  153  A    between atoms: _366  and  _369
REMARK  154  A    between atoms: _369  and  _370
REMARK  155  A    between atoms: _373  and  _375
REMARK  156  A    between atoms: _375  and  _376
REMARK  157  A    between atoms: _375  and  _378
REMARK  158  A    between atoms: _378  and  _379
REMARK  159  A    between atoms: _382  and  _384
REMARK  160  A    between atoms: _384  and  _385
REMARK  161  A    between atoms: _384  and  _387
REMARK  162  A    between atoms: _390  and  _392
REMARK  163  A    between atoms: _392  and  _393
REMARK  164  A    between atoms: _392  and  _395
REMARK  165  A    between atoms: _395  and  _396
REMARK  166  A    between atoms: _399  and  _401
REMARK  167  A    between atoms: _401  and  _402
REMARK  168  A    between atoms: _401  and  _404
REMARK  169  A    between atoms: _404  and  _405
REMARK  170  A    between atoms: _405  and  _406
REMARK  171  A    between atoms: _406  and  _407
REMARK  172  A    between atoms: _407  and  _408
REMARK  173  A    between atoms: _412  and  _414
REMARK  174  A    between atoms: _414  and  _415
REMARK  175  A    between atoms: _414  and  _417
REMARK  176  A    between atoms: _417  and  _418
REMARK  177  A    between atoms: _418  and  _419
REMARK  178  A    between atoms: _421  and  _423
REMARK  179  A    between atoms: _423  and  _424
REMARK  180  A    between atoms: _423  and  _426
REMARK  181  A    between atoms: _426  and  _427
REMARK  182  A    between atoms: _430  and  _432
REMARK  183  A    between atoms: _432  and  _433
REMARK  184  A    between atoms: _435  and  _437
REMARK  185  A    between atoms: _437  and  _438
REMARK  186  A    between atoms: _440  and  _442
REMARK  187  A    between atoms: _442  and  _443
REMARK  188  A    between atoms: _442  and  _445
REMARK  189  A    between atoms: _445  and  _446
REMARK  190  A    between atoms: _449  and  _451
REMARK  191  A    between atoms: _451  and  _452
REMARK  192  A    between atoms: _454  and  _456
REMARK  193  A    between atoms: _456  and  _457
REMARK  194  A    between atoms: _459  and  _461
REMARK  195  A    between atoms: _461  and  _462
REMARK  196  A    between atoms: _461  and  _464
REMARK  197  A    between atoms: _464  and  _465
REMARK  198  A    between atoms: _471  and  _473
REMARK  199  A    between atoms: _473  and  _474
REMARK  200  A    between atoms: _473  and  _476
REMARK  201  A    between atoms: _476  and  _477
REMARK  202  A    between atoms: _480  and  _482
REMARK  203  A    between atoms: _482  and  _483
REMARK  204  A    between atoms: _482  and  _485
REMARK  205  A    between atoms: _488  and  _490
REMARK  206  A    between atoms: _490  and  _491
REMARK  207  A    between atoms: _490  and  _493
REMARK  208  A    between atoms: _493  and  _494
REMARK  209  A    between atoms: _497  and  _499
REMARK  210  A    between atoms: _499  and  _500
REMARK  211  A    between atoms: _499  and  _502
REMARK  212  A    between atoms: _502  and  _503
REMARK  213  A    between atoms: _507  and  _508
REMARK  214  A    between atoms: _513  and  _515
REMARK  215  A    between atoms: _515  and  _516
REMARK  216  A    between atoms: _515  and  _518
REMARK  217  A    between atoms: _518  and  _519
REMARK  218  A    between atoms: _522  and  _524
REMARK  219  A    between atoms: _524  and  _525
REMARK  220  A    between atoms: _524  and  _527
REMARK  221  A    between atoms: _527  and  _528
REMARK  222  A    between atoms: _533  and  _535
REMARK  223  A    between atoms: _535  and  _536
REMARK  224  A    between atoms: _535  and  _538
REMARK  225  A    between atoms: _541  and  _543
REMARK  226  A    between atoms: _543  and  _544
REMARK  227  A    between atoms: _543  and  _546
REMARK  228  A    between atoms: _546  and  _547
REMARK  229  A    between atoms: _550  and  _552
REMARK  230  A    between atoms: _552  and  _553
REMARK  231  A    between atoms: _555  and  _557
REMARK  232  A    between atoms: _557  and  _558
REMARK  233  A    between atoms: _557  and  _560
REMARK  234  A    between atoms: _560  and  _561
REMARK  235  A    between atoms: _561  and  _562
REMARK  236  A    between atoms: _562  and  _563
REMARK  237  A    between atoms: _572  and  _574
REMARK  238  A    between atoms: _574  and  _575
REMARK  239  A    between atoms: _574  and  _577
REMARK  240  A    between atoms: _577  and  _578
REMARK                            x       y       z     vdW  Elec       q    Type
REMARK                         _______ _______ _______ _____ _____    ______ ____
ROOT
ATOM      1  O   HOH     1       1.888   6.582   7.928  0.00  0.00    +0.000 OA
ENDROOT
TORSDOF 0
REMARK  Name = ../refined-set-2016/1k6c/1k6c_pocket.pdb
REMARK  240 active torsions:
REMARK  status: ('A' for Active; 'I' for Inactive)
REMARK    1  A    between atoms: _1  and  _3
REMARK    2  A    between atoms: _3  and  _4
REMARK    3  A    between atoms: _3  and  _6
REMARK    4  A    between atoms: _6  and  _7
REMARK    5  A    between atoms: _7  and  _8
REMARK    6  A    between atoms: _8  and  _9
REMARK    7  A    between atoms: _18  and  _20
REMARK    8  A    between atoms: _20  and  _21
REMARK    9  A    between atoms: _20  and  _23
REMARK   10  A    between atoms: _23  and  _24
REMARK   11  A    between atoms: _27  and  _29
REMARK   12  A    between atoms: _29  and  _30
REMARK   13  A    between atoms: _29  and  _32
REMARK   14  A    between atoms: _32  and  _33
REMARK   15  A    between atoms: _36  and  _38
REMARK   16  A    between atoms: _38  and  _39
REMARK   17  A    between atoms: _38  and  _41
REMARK   18  A    between atoms: _41  and  _42
REMARK   19  A    between atoms: _45  and  _47
REMARK   20  A    between atoms: _47  and  _48
REMARK   21  A    between atoms: _47  and  _50
REMARK   22  A    between atoms: _50  and  _51
REMARK   23  A    between atoms: _54  and  _56
REMARK   24  A    between atoms: _56  and  _57
REMARK   25  A    between atoms: _56  and  _59
REMARK   26  A    between atoms: _59  and  _60
REMARK   27  A    between atoms: _63  and  _65
REMARK   28  A    between atoms: _65  and  _66
REMARK   29  A    between atoms: _68  and  _70
REMARK   30  A    between atoms: _70  and  _71
REMARK   31  A    between atoms: _74  and  _76
REMARK   32  A    between atoms: _76  and  _77
REMARK   33  A    between atoms: _76  and  _79
REMARK   34  A    between atoms: _79  and  _80
REMARK   35  A    between atoms: _83  and  _85
REMARK   36  A    between atoms: _85  and  _86
REMARK   37  A    between atoms: _85  and  _88
REMARK   38  A    between atoms: _88  and  _89
REMARK   39  A    between atoms: _92  and  _94
REMARK   40  A    between atoms: _94  and  _95
REMARK   41  A    between atoms: _94  and  _97
REMARK   42  A    between atoms: _97  and  _98
REMARK   43  A    between atoms: _101  and  _103
REMARK   44  A    between atoms: _103  and  _104
REMARK   45  A    between atoms: _103  and  _106
REMARK   46  A    between atoms: _109  and  _111
REMARK   47  A    between atoms: _111  and  _112
REMARK   48  A    between atoms: _111  and  _114
REMARK   49  A    between atoms: _114  and  _115
REMARK   50  A    between atoms: _118  and  _120
REMARK   51  A    between atoms: _120  and  _121
REMARK   52  A    between atoms: _120  and  _123
REMARK   53  A    between atoms: _123  and  _124
REMARK   54  A    between atoms: _124  and  _125
REMARK   55  A    between atoms: _125  and  _126
REMARK   56  A    between atoms: _126  and  _127
REMARK   57  A    between atoms: _131  and  _133
REMARK   58  A    between atoms: _133  and  _134
REMARK   59  A    between atoms: _133  and  _136
REMARK   60  A    between atoms: _136  and  _137
REMARK   61  A    between atoms: _137  and  _138
REMARK   62  A    between atoms: _140  and  _142
REMARK   63  A    between atoms: _142  and  _143
REMARK   64  A    between atoms: _142  and  _145
REMARK   65  A    between atoms: _145  and  _146
REMARK   66  A    between atoms: _149  and  _151
REMARK   67  A    between atoms: _151  and  _152
REMARK   68  A    between atoms: _154  and  _156
REMARK   69  A    between atoms: _156  and  _157
REMARK   70  A    between atoms: _159  and  _161
REMARK   71  A    between atoms: _161  and  _162
REMARK   72  A    between atoms: _161  and  _164
REMARK   73  A    between atoms: _164  and  _165
REMARK   74  A    between atoms: _168  and  _170
REMARK   75  A    between atoms: _170  and  _171
REMARK   76  A    between atoms: _173  and  _175
REMARK   77  A    between atoms: _175  and  _176
REMARK   78  A    between atoms: _178  and  _180
REMARK   79  A    between atoms: _180  and  _181
REMARK   80  A    between atoms: _180  and  _183
REMARK   81  A    between atoms: _183  and  _184
REMARK   82  A    between atoms: _190  and  _192
REMARK   83  A    between atoms: _192  and  _193
REMARK   84  A    between atoms: _192  and  _195
REMARK   85  A    between atoms: _195  and  _196
REMARK   86  A    between atoms: _199  and  _201
REMARK   87  A    between atoms: _201  and  _202
REMARK   88  A    between atoms: _201  and  _204
REMARK   89  A    between atoms: _207  and  _209
REMARK   90  A    between atoms: _209  and  _210
REMARK   91  A    between atoms: _209  and  _212
REMARK   92  A    between atoms: _212  and  _213
REMARK   93  A    between atoms: _216  and  _218
REMARK   94  A    between atoms: _218  and  _219
REMARK   95  A    between atoms: _218  and  _221
REMARK   96  A    between atoms: _221  and  _222
REMARK   97  A    between atoms: _226  and  _227
REMARK   98  A    between atoms: _232  and  _234
REMARK   99  A    between atoms: _234  and  _235
REMARK  100  A    between atoms: _234  and  _237
REMARK  101  A    between atoms: _237  and  _238
REMARK  102  A    between atoms: _241  and  _243
REMARK  103  A    between atoms: _243  and  _244
REMARK  104  A    between atoms: _243  and  _246
REMARK  105  A    between atoms: _246  and  _247
REMARK  106  A    between atoms: _252  and  _254
REMARK  107  A    between atoms: _254  and  _255
REMARK  108  A    between atoms: _254  and  _257
REMARK  109  A    between atoms: _260  and  _262
REMARK  110  A    between atoms: _262  and  _263
REMARK  111  A    between atoms: _262  and  _265
REMARK  112  A    between atoms: _265  and  _266
REMARK  113  A    between atoms: _269  and  _271
REMARK  114  A    between atoms: _271  and  _272
REMARK  115  A    between atoms: _274  and  _276
REMARK  116  A    between atoms: _276  and  _277
REMARK  117  A    between atoms: _276  and  _279
REMARK  118  A    between atoms: _279  and  _280
REMARK  119  A    between atoms: _280  and  _281
REMARK  120  A    between atoms: _281  and  _282
REMARK  121  A    between atoms: _291  and  _293
REMARK  122  A    between atoms: _293  and  _294
REMARK  123  A    between atoms: _293  and  _296
REMARK  124  A    between atoms: _296  and  _297
REMARK  125  A    between atoms: _297  and  _298
REMARK  126  A    between atoms: _298  and  _299
REMARK  127  A    between atoms: _308  and  _310
REMARK  128  A    between atoms: _310  and  _311
REMARK  129  A    between atoms: _310  and  _313
REMARK  130  A    between atoms: _313  and  _314
REMARK  131  A    between atoms: _317  and  _319
REMARK  132  A    between atoms: _319  and  _320
REMARK  133  A    between atoms: _319  and  _322
REMARK  134  A    between atoms: _322  and  _323
REMARK  135  A    between atoms: _326  and  _328
REMARK  136  A    between atoms: _328  and  _329
REMARK  137  A    between atoms: _328  and  _331
REMARK  138  A    between atoms: _331  and  _332
REMARK  139  A    between atoms: _335  and  _337
REMARK  140  A    between atoms: _337  and  _338
REMARK  141  A    between atoms: _337  and  _340
REMARK  142  A    between atoms: _340  and  _341
REMARK  143  A    between atoms: _344  and  _346
REMARK  144  A    between atoms: _346  and  _347
REMARK  145  A    between atoms: _349  and  _351
REMARK  146  A    between atoms: _351  and  _352
REMARK  147  A    between atoms: _355  and  _357
REMARK  148  A    between atoms: _357  and  _358
REMARK  149  A    between atoms: _357  and  _360
REMARK  150  A    between atoms: _360  and  _361
REMARK  151  A    between atoms: _364  and  _366
REMARK  152  A    between atoms: _366  and  _367
REMARK  153  A    between atoms: _366  and  _369
REMARK  154  A    between atoms: _369  and  _370
REMARK  155  A    between atoms: _373  and  _375
REMARK  156  A    between atoms: _375  and  _376
REMARK  157  A    between atoms: _375  and  _378
REMARK  158  A    between atoms: _378  and  _379
REMARK  159  A    between atoms: _382  and  _384
REMARK  160  A    between atoms: _384  and  _385
REMARK  161  A    between atoms: _384  and  _387
REMARK  162  A    between atoms: _390  and  _392
REMARK  163  A    between atoms: _392  and  _393
REMARK  164  A    between atoms: _392  and  _395
REMARK  165  A    between atoms: _395  and  _396
REMARK  166  A    between atoms: _399  and  _401
REMARK  167  A    between atoms: _401  and  _402
REMARK  168  A    between atoms: _401  and  _404
REMARK  169  A    between atoms: _404  and  _405
REMARK  170  A    between atoms: _405  and  _406
REMARK  171  A    between atoms: _406  and  _407
REMARK  172  A    between atoms: _407  and  _408
REMARK  173  A    between atoms: _412  and  _414
REMARK  174  A    between atoms: _414  and  _415
REMARK  175  A    between atoms: _414  and  _417
REMARK  176  A    between atoms: _417  and  _418
REMARK  177  A    between atoms: _418  and  _419
REMARK  178  A    between atoms: _421  and  _423
REMARK  179  A    between atoms: _423  and  _424
REMARK  180  A    between atoms: _423  and  _426
REMARK  181  A    between atoms: _426  and  _427
REMARK  182  A    between atoms: _430  and  _432
REMARK  183  A    between atoms: _432  and  _433
REMARK  184  A    between atoms: _435  and  _437
REMARK  185  A    between atoms: _437  and  _438
REMARK  186  A    between atoms: _440  and  _442
REMARK  187  A    between atoms: _442  and  _443
REMARK  188  A    between atoms: _442  and  _445
REMARK  189  A    between atoms: _445  and  _446
REMARK  190  A    between atoms: _449  and  _451
REMARK  191  A    between atoms: _451  and  _452
REMARK  192  A    between atoms: _454  and  _456
REMARK  193  A    between atoms: _456  and  _457
REMARK  194  A    between atoms: _459  and  _461
REMARK  195  A    between atoms: _461  and  _462
REMARK  196  A    between atoms: _461  and  _464
REMARK  197  A    between atoms: _464  and  _465
REMARK  198  A    between atoms: _471  and  _473
REMARK  199  A    between atoms: _473  and  _474
REMARK  200  A    between atoms: _473  and  _476
REMARK  201  A    between atoms: _476  and  _477
REMARK  202  A    between atoms: _480  and  _482
REMARK  203  A    between atoms: _482  and  _483
REMARK  204  A    between atoms: _482  and  _485
REMARK  205  A    between atoms: _488  and  _490
REMARK  206  A    between atoms: _490  and  _491
REMARK  207  A    between atoms: _490  and  _493
REMARK  208  A    between atoms: _493  and  _494
REMARK  209  A    between atoms: _497  and  _499
REMARK  210  A    between atoms: _499  and  _500
REMARK  211  A    between atoms: _499  and  _502
REMARK  212  A    between atoms: _502  and  _503
REMARK  213  A    between atoms: _507  and  _508
REMARK  214  A    between atoms: _513  and  _515
REMARK  215  A    between atoms: _515  and  _516
REMARK  216  A    between atoms: _515  and  _518
REMARK  217  A    between atoms: _518  and  _519
REMARK  218  A    between atoms: _522  and  _524
REMARK  219  A    between atoms: _524  and  _525
REMARK  220  A    between atoms: _524  and  _527
REMARK  221  A    between atoms: _527  and  _528
REMARK  222  A    between atoms: _533  and  _535
REMARK  223  A    between atoms: _535  and  _536
REMARK  224  A    between atoms: _535  and  _538
REMARK  225  A    between atoms: _541  and  _543
REMARK  226  A    between atoms: _543  and  _544
REMARK  227  A    between atoms: _543  and  _546
REMARK  228  A    between atoms: _546  and  _547
REMARK  229  A    between atoms: _550  and  _552
REMARK  230  A    between atoms: _552  and  _553
REMARK  231  A    between atoms: _555  and  _557
REMARK  232  A    between atoms: _557  and  _558
REMARK  233  A    between atoms: _557  and  _560
REMARK  234  A    between atoms: _560  and  _561
REMARK  235  A    between atoms: _561  and  _562
REMARK  236  A    between atoms: _562  and  _563
REMARK  237  A    between atoms: _572  and  _574
REMARK  238  A    between atoms: _574  and  _575
REMARK  239  A    between atoms: _574  and  _577
REMARK  240  A    between atoms: _577  and  _578
REMARK                            x       y       z     vdW  Elec       q    Type
REMARK                         _______ _______ _______ _____ _____    ______ ____
ROOT
ATOM      1  O   HOH     1       5.503   6.426  12.953  0.00  0.00    +0.000 OA
ENDROOT
TORSDOF 0
REMARK  Name = ../refined-set-2016/1k6c/1k6c_pocket.pdb
REMARK  240 active torsions:
REMARK  status: ('A' for Active; 'I' for Inactive)
REMARK    1  A    between atoms: _1  and  _3
REMARK    2  A    between atoms: _3  and  _4
REMARK    3  A    between atoms: _3  and  _6
REMARK    4  A    between atoms: _6  and  _7
REMARK    5  A    between atoms: _7  and  _8
REMARK    6  A    between atoms: _8  and  _9
REMARK    7  A    between atoms: _18  and  _20
REMARK    8  A    between atoms: _20  and  _21
REMARK    9  A    between atoms: _20  and  _23
REMARK   10  A    between atoms: _23  and  _24
REMARK   11  A    between atoms: _27  and  _29
REMARK   12  A    between atoms: _29  and  _30
REMARK   13  A    between atoms: _29  and  _32
REMARK   14  A    between atoms: _32  and  _33
REMARK   15  A    between atoms: _36  and  _38
REMARK   16  A    between atoms: _38  and  _39
REMARK   17  A    between atoms: _38  and  _41
REMARK   18  A    between atoms: _41  and  _42
REMARK   19  A    between atoms: _45  and  _47
REMARK   20  A    between atoms: _47  and  _48
REMARK   21  A    between atoms: _47  and  _50
REMARK   22  A    between atoms: _50  and  _51
REMARK   23  A    between atoms: _54  and  _56
REMARK   24  A    between atoms: _56  and  _57
REMARK   25  A    between atoms: _56  and  _59
REMARK   26  A    between atoms: _59  and  _60
REMARK   27  A    between atoms: _63  and  _65
REMARK   28  A    between atoms: _65  and  _66
REMARK   29  A    between atoms: _68  and  _70
REMARK   30  A    between atoms: _70  and  _71
REMARK   31  A    between atoms: _74  and  _76
REMARK   32  A    between atoms: _76  and  _77
REMARK   33  A    between atoms: _76  and  _79
REMARK   34  A    between atoms: _79  and  _80
REMARK   35  A    between atoms: _83  and  _85
REMARK   36  A    between atoms: _85  and  _86
REMARK   37  A    between atoms: _85  and  _88
REMARK   38  A    between atoms: _88  and  _89
REMARK   39  A    between atoms: _92  and  _94
REMARK   40  A    between atoms: _94  and  _95
REMARK   41  A    between atoms: _94  and  _97
REMARK   42  A    between atoms: _97  and  _98
REMARK   43  A    between atoms: _101  and  _103
REMARK   44  A    between atoms: _103  and  _104
REMARK   45  A    between atoms: _103  and  _106
REMARK   46  A    between atoms: _109  and  _111
REMARK   47  A    between atoms: _111  and  _112
REMARK   48  A    between atoms: _111  and  _114
REMARK   49  A    between atoms: _114  and  _115
REMARK   50  A    between atoms: _118  and  _120
REMARK   51  A    between atoms: _120  and  _121
REMARK   52  A    between atoms: _120  and  _123
REMARK   53  A    between atoms: _123  and  _124
REMARK   54  A    between atoms: _124  and  _125
REMARK   55  A    between atoms: _125  and  _126
REMARK   56  A    between atoms: _126  and  _127
REMARK   57  A    between atoms: _131  and  _133
REMARK   58  A    between atoms: _133  and  _134
REMARK   59  A    between atoms: _133  and  _136
REMARK   60  A    between atoms: _136  and  _137
REMARK   61  A    between atoms: _137  and  _138
REMARK   62  A    between atoms: _140  and  _142
REMARK   63  A    between atoms: _142  and  _143
REMARK   64  A    between atoms: _142  and  _145
REMARK   65  A    between atoms: _145  and  _146
REMARK   66  A    between atoms: _149  and  _151
REMARK   67  A    between atoms: _151  and  _152
REMARK   68  A    between atoms: _154  and  _156
REMARK   69  A    between atoms: _156  and  _157
REMARK   70  A    between atoms: _159  and  _161
REMARK   71  A    between atoms: _161  and  _162
REMARK   72  A    between atoms: _161  and  _164
REMARK   73  A    between atoms: _164  and  _165
REMARK   74  A    between atoms: _168  and  _170
REMARK   75  A    between atoms: _170  and  _171
REMARK   76  A    between atoms: _173  and  _175
REMARK   77  A    between atoms: _175  and  _176
REMARK   78  A    between atoms: _178  and  _180
REMARK   79  A    between atoms: _180  and  _181
REMARK   80  A    between atoms: _180  and  _183
REMARK   81  A    between atoms: _183  and  _184
REMARK   82  A    between atoms: _190  and  _192
REMARK   83  A    between atoms: _192  and  _193
REMARK   84  A    between atoms: _192  and  _195
REMARK   85  A    between atoms: _195  and  _196
REMARK   86  A    between atoms: _199  and  _201
REMARK   87  A    between atoms: _201  and  _202
REMARK   88  A    between atoms: _201  and  _204
REMARK   89  A    between atoms: _207  and  _209
REMARK   90  A    between atoms: _209  and  _210
REMARK   91  A    between atoms: _209  and  _212
REMARK   92  A    between atoms: _212  and  _213
REMARK   93  A    between atoms: _216  and  _218
REMARK   94  A    between atoms: _218  and  _219
REMARK   95  A    between atoms: _218  and  _221
REMARK   96  A    between atoms: _221  and  _222
REMARK   97  A    between atoms: _226  and  _227
REMARK   98  A    between atoms: _232  and  _234
REMARK   99  A    between atoms: _234  and  _235
REMARK  100  A    between atoms: _234  and  _237
REMARK  101  A    between atoms: _237  and  _238
REMARK  102  A    between atoms: _241  and  _243
REMARK  103  A    between atoms: _243  and  _244
REMARK  104  A    between atoms: _243  and  _246
REMARK  105  A    between atoms: _246  and  _247
REMARK  106  A    between atoms: _252  and  _254
REMARK  107  A    between atoms: _254  and  _255
REMARK  108  A    between atoms: _254  and  _257
REMARK  109  A    between atoms: _260  and  _262
REMARK  110  A    between atoms: _262  and  _263
REMARK  111  A    between atoms: _262  and  _265
REMARK  112  A    between atoms: _265  and  _266
REMARK  113  A    between atoms: _269  and  _271
REMARK  114  A    between atoms: _271  and  _272
REMARK  115  A    between atoms: _274  and  _276
REMARK  116  A    between atoms: _276  and  _277
REMARK  117  A    between atoms: _276  and  _279
REMARK  118  A    between atoms: _279  and  _280
REMARK  119  A    between atoms: _280  and  _281
REMARK  120  A    between atoms: _281  and  _282
REMARK  121  A    between atoms: _291  and  _293
REMARK  122  A    between atoms: _293  and  _294
REMARK  123  A    between atoms: _293  and  _296
REMARK  124  A    between atoms: _296  and  _297
REMARK  125  A    between atoms: _297  and  _298
REMARK  126  A    between atoms: _298  and  _299
REMARK  127  A    between atoms: _308  and  _310
REMARK  128  A    between atoms: _310  and  _311
REMARK  129  A    between atoms: _310  and  _313
REMARK  130  A    between atoms: _313  and  _314
REMARK  131  A    between atoms: _317  and  _319
REMARK  132  A    between atoms: _319  and  _320
REMARK  133  A    between atoms: _319  and  _322
REMARK  134  A    between atoms: _322  and  _323
REMARK  135  A    between atoms: _326  and  _328
REMARK  136  A    between atoms: _328  and  _329
REMARK  137  A    between atoms: _328  and  _331
REMARK  138  A    between atoms: _331  and  _332
REMARK  139  A    between atoms: _335  and  _337
REMARK  140  A    between atoms: _337  and  _338
REMARK  141  A    between atoms: _337  and  _340
REMARK  142  A    between atoms: _340  and  _341
REMARK  143  A    between atoms: _344  and  _346
REMARK  144  A    between atoms: _346  and  _347
REMARK  145  A    between atoms: _349  and  _351
REMARK  146  A    between atoms: _351  and  _352
REMARK  147  A    between atoms: _355  and  _357
REMARK  148  A    between atoms: _357  and  _358
REMARK  149  A    between atoms: _357  and  _360
REMARK  150  A    between atoms: _360  and  _361
REMARK  151  A    between atoms: _364  and  _366
REMARK  152  A    between atoms: _366  and  _367
REMARK  153  A    between atoms: _366  and  _369
REMARK  154  A    between atoms: _369  and  _370
REMARK  155  A    between atoms: _373  and  _375
REMARK  156  A    between atoms: _375  and  _376
REMARK  157  A    between atoms: _375  and  _378
REMARK  158  A    between atoms: _378  and  _379
REMARK  159  A    between atoms: _382  and  _384
REMARK  160  A    between atoms: _384  and  _385
REMARK  161  A    between atoms: _384  and  _387
REMARK  162  A    between atoms: _390  and  _392
REMARK  163  A    between atoms: _392  and  _393
REMARK  164  A    between atoms: _392  and  _395
REMARK  165  A    between atoms: _395  and  _396
REMARK  166  A    between atoms: _399  and  _401
REMARK  167  A    between atoms: _401  and  _402
REMARK  168  A    between atoms: _401  and  _404
REMARK  169  A    between atoms: _404  and  _405
REMARK  170  A    between atoms: _405  and  _406
REMARK  171  A    between atoms: _406  and  _407
REMARK  172  A    between atoms: _407  and  _408
REMARK  173  A    between atoms: _412  and  _414
REMARK  174  A    between atoms: _414  and  _415
REMARK  175  A    between atoms: _414  and  _417
REMARK  176  A    between atoms: _417  and  _418
REMARK  177  A    between atoms: _418  and  _419
REMARK  178  A    between atoms: _421  and  _423
REMARK  179  A    between atoms: _423  and  _424
REMARK  180  A    between atoms: _423  and  _426
REMARK  181  A    between atoms: _426  and  _427
REMARK  182  A    between atoms: _430  and  _432
REMARK  183  A    between atoms: _432  and  _433
REMARK  184  A    between atoms: _435  and  _437
REMARK  185  A    between atoms: _437  and  _438
REMARK  186  A    between atoms: _440  and  _442
REMARK  187  A    between atoms: _442  and  _443
REMARK  188  A    between atoms: _442  and  _445
REMARK  189  A    between atoms: _445  and  _446
REMARK  190  A    between atoms: _449  and  _451
REMARK  191  A    between atoms: _451  and  _452
REMARK  192  A    between atoms: _454  and  _456
REMARK  193  A    between atoms: _456  and  _457
REMARK  194  A    between atoms: _459  and  _461
REMARK  195  A    between atoms: _461  and  _462
REMARK  196  A    between atoms: _461  and  _464
REMARK  197  A    between atoms: _464  and  _465
REMARK  198  A    between atoms: _471  and  _473
REMARK  199  A    between atoms: _473  and  _474
REMARK  200  A    between atoms: _473  and  _476
REMARK  201  A    between atoms: _476  and  _477
REMARK  202  A    between atoms: _480  and  _482
REMARK  203  A    between atoms: _482  and  _483
REMARK  204  A    between atoms: _482  and  _485
REMARK  205  A    between atoms: _488  and  _490
REMARK  206  A    between atoms: _490  and  _491
REMARK  207  A    between atoms: _490  and  _493
REMARK  208  A    between atoms: _493  and  _494
REMARK  209  A    between atoms: _497  and  _499
REMARK  210  A    between atoms: _499  and  _500
REMARK  211  A    between atoms: _499  and  _502
REMARK  212  A    between atoms: _502  and  _503
REMARK  213  A    between atoms: _507  and  _508
REMARK  214  A    between atoms: _513  and  _515
REMARK  215  A    between atoms: _515  and  _516
REMARK  216  A    between atoms: _515  and  _518
REMARK  217  A    between atoms: _518  and  _519
REMARK  218  A    between atoms: _522  and  _524
REMARK  219  A    between atoms: _524  and  _525
REMARK  220  A    between atoms: _524  and  _527
REMARK  221  A    between atoms: _527  and  _528
REMARK  222  A    between atoms: _533  and  _535
REMARK  223  A    between atoms: _535  and  _536
REMARK  224  A    between atoms: _535  and  _538
REMARK  225  A    between atoms: _541  and  _543
REMARK  226  A    between atoms: _543  and  _544
REMARK  227  A    between atoms: _543  and  _546
REMARK  228  A    between atoms: _546  and  _547
REMARK  229  A    between atoms: _550  and  _552
REMARK  230  A    between atoms: _552  and  _553
REMARK  231  A    between atoms: _555  and  _557
REMARK  232  A    between atoms: _557  and  _558
REMARK  233  A    between atoms: _557  and  _560
REMARK  234  A    between atoms: _560  and  _561
REMARK  235  A    between atoms: _561  and  _562
REMARK  236  A    between atoms: _562  and  _563
REMARK  237  A    between atoms: _572  and  _574
REMARK  238  A    between atoms: _574  and  _575
REMARK  239  A    between atoms: _574  and  _577
REMARK  240  A    between atoms: _577  and  _578
REMARK                            x       y       z     vdW  Elec       q    Type
REMARK                         _______ _______ _______ _____ _____    ______ ____
ROOT
ATOM      1  O   HOH     1       3.257  -5.511  18.778  0.00  0.00    +0.000 OA
ENDROOT
TORSDOF 0
REMARK  Name = ../refined-set-2016/1k6c/1k6c_pocket.pdb
REMARK  240 active torsions:
REMARK  status: ('A' for Active; 'I' for Inactive)
REMARK    1  A    between atoms: _1  and  _3
REMARK    2  A    between atoms: _3  and  _4
REMARK    3  A    between atoms: _3  and  _6
REMARK    4  A    between atoms: _6  and  _7
REMARK    5  A    between atoms: _7  and  _8
REMARK    6  A    between atoms: _8  and  _9
REMARK    7  A    between atoms: _18  and  _20
REMARK    8  A    between atoms: _20  and  _21
REMARK    9  A    between atoms: _20  and  _23
REMARK   10  A    between atoms: _23  and  _24
REMARK   11  A    between atoms: _27  and  _29
REMARK   12  A    between atoms: _29  and  _30
REMARK   13  A    between atoms: _29  and  _32
REMARK   14  A    between atoms: _32  and  _33
REMARK   15  A    between atoms: _36  and  _38
REMARK   16  A    between atoms: _38  and  _39
REMARK   17  A    between atoms: _38  and  _41
REMARK   18  A    between atoms: _41  and  _42
REMARK   19  A    between atoms: _45  and  _47
REMARK   20  A    between atoms: _47  and  _48
REMARK   21  A    between atoms: _47  and  _50
REMARK   22  A    between atoms: _50  and  _51
REMARK   23  A    between atoms: _54  and  _56
REMARK   24  A    between atoms: _56  and  _57
REMARK   25  A    between atoms: _56  and  _59
REMARK   26  A    between atoms: _59  and  _60
REMARK   27  A    between atoms: _63  and  _65
REMARK   28  A    between atoms: _65  and  _66
REMARK   29  A    between atoms: _68  and  _70
REMARK   30  A    between atoms: _70  and  _71
REMARK   31  A    between atoms: _74  and  _76
REMARK   32  A    between atoms: _76  and  _77
REMARK   33  A    between atoms: _76  and  _79
REMARK   34  A    between atoms: _79  and  _80
REMARK   35  A    between atoms: _83  and  _85
REMARK   36  A    between atoms: _85  and  _86
REMARK   37  A    between atoms: _85  and  _88
REMARK   38  A    between atoms: _88  and  _89
REMARK   39  A    between atoms: _92  and  _94
REMARK   40  A    between atoms: _94  and  _95
REMARK   41  A    between atoms: _94  and  _97
REMARK   42  A    between atoms: _97  and  _98
REMARK   43  A    between atoms: _101  and  _103
REMARK   44  A    between atoms: _103  and  _104
REMARK   45  A    between atoms: _103  and  _106
REMARK   46  A    between atoms: _109  and  _111
REMARK   47  A    between atoms: _111  and  _112
REMARK   48  A    between atoms: _111  and  _114
REMARK   49  A    between atoms: _114  and  _115
REMARK   50  A    between atoms: _118  and  _120
REMARK   51  A    between atoms: _120  and  _121
REMARK   52  A    between atoms: _120  and  _123
REMARK   53  A    between atoms: _123  and  _124
REMARK   54  A    between atoms: _124  and  _125
REMARK   55  A    between atoms: _125  and  _126
REMARK   56  A    between atoms: _126  and  _127
REMARK   57  A    between atoms: _131  and  _133
REMARK   58  A    between atoms: _133  and  _134
REMARK   59  A    between atoms: _133  and  _136
REMARK   60  A    between atoms: _136  and  _137
REMARK   61  A    between atoms: _137  and  _138
REMARK   62  A    between atoms: _140  and  _142
REMARK   63  A    between atoms: _142  and  _143
REMARK   64  A    between atoms: _142  and  _145
REMARK   65  A    between atoms: _145  and  _146
REMARK   66  A    between atoms: _149  and  _151
REMARK   67  A    between atoms: _151  and  _152
REMARK   68  A    between atoms: _154  and  _156
REMARK   69  A    between atoms: _156  and  _157
REMARK   70  A    between atoms: _159  and  _161
REMARK   71  A    between atoms: _161  and  _162
REMARK   72  A    between atoms: _161  and  _164
REMARK   73  A    between atoms: _164  and  _165
REMARK   74  A    between atoms: _168  and  _170
REMARK   75  A    between atoms: _170  and  _171
REMARK   76  A    between atoms: _173  and  _175
REMARK   77  A    between atoms: _175  and  _176
REMARK   78  A    between atoms: _178  and  _180
REMARK   79  A    between atoms: _180  and  _181
REMARK   80  A    between atoms: _180  and  _183
REMARK   81  A    between atoms: _183  and  _184
REMARK   82  A    between atoms: _190  and  _192
REMARK   83  A    between atoms: _192  and  _193
REMARK   84  A    between atoms: _192  and  _195
REMARK   85  A    between atoms: _195  and  _196
REMARK   86  A    between atoms: _199  and  _201
REMARK   87  A    between atoms: _201  and  _202
REMARK   88  A    between atoms: _201  and  _204
REMARK   89  A    between atoms: _207  and  _209
REMARK   90  A    between atoms: _209  and  _210
REMARK   91  A    between atoms: _209  and  _212
REMARK   92  A    between atoms: _212  and  _213
REMARK   93  A    between atoms: _216  and  _218
REMARK   94  A    between atoms: _218  and  _219
REMARK   95  A    between atoms: _218  and  _221
REMARK   96  A    between atoms: _221  and  _222
REMARK   97  A    between atoms: _226  and  _227
REMARK   98  A    between atoms: _232  and  _234
REMARK   99  A    between atoms: _234  and  _235
REMARK  100  A    between atoms: _234  and  _237
REMARK  101  A    between atoms: _237  and  _238
REMARK  102  A    between atoms: _241  and  _243
REMARK  103  A    between atoms: _243  and  _244
REMARK  104  A    between atoms: _243  and  _246
REMARK  105  A    between atoms: _246  and  _247
REMARK  106  A    between atoms: _252  and  _254
REMARK  107  A    between atoms: _254  and  _255
REMARK  108  A    between atoms: _254  and  _257
REMARK  109  A    between atoms: _260  and  _262
REMARK  110  A    between atoms: _262  and  _263
REMARK  111  A    between atoms: _262  and  _265
REMARK  112  A    between atoms: _265  and  _266
REMARK  113  A    between atoms: _269  and  _271
REMARK  114  A    between atoms: _271  and  _272
REMARK  115  A    between atoms: _274  and  _276
REMARK  116  A    between atoms: _276  and  _277
REMARK  117  A    between atoms: _276  and  _279
REMARK  118  A    between atoms: _279  and  _280
REMARK  119  A    between atoms: _280  and  _281
REMARK  120  A    between atoms: _281  and  _282
REMARK  121  A    between atoms: _291  and  _293
REMARK  122  A    between atoms: _293  and  _294
REMARK  123  A    between atoms: _293  and  _296
REMARK  124  A    between atoms: _296  and  _297
REMARK  125  A    between atoms: _297  and  _298
REMARK  126  A    between atoms: _298  and  _299
REMARK  127  A    between atoms: _308  and  _310
REMARK  128  A    between atoms: _310  and  _311
REMARK  129  A    between atoms: _310  and  _313
REMARK  130  A    between atoms: _313  and  _314
REMARK  131  A    between atoms: _317  and  _319
REMARK  132  A    between atoms: _319  and  _320
REMARK  133  A    between atoms: _319  and  _322
REMARK  134  A    between atoms: _322  and  _323
REMARK  135  A    between atoms: _326  and  _328
REMARK  136  A    between atoms: _328  and  _329
REMARK  137  A    between atoms: _328  and  _331
REMARK  138  A    between atoms: _331  and  _332
REMARK  139  A    between atoms: _335  and  _337
REMARK  140  A    between atoms: _337  and  _338
REMARK  141  A    between atoms: _337  and  _340
REMARK  142  A    between atoms: _340  and  _341
REMARK  143  A    between atoms: _344  and  _346
REMARK  144  A    between atoms: _346  and  _347
REMARK  145  A    between atoms: _349  and  _351
REMARK  146  A    between atoms: _351  and  _352
REMARK  147  A    between atoms: _355  and  _357
REMARK  148  A    between atoms: _357  and  _358
REMARK  149  A    between atoms: _357  and  _360
REMARK  150  A    between atoms: _360  and  _361
REMARK  151  A    between atoms: _364  and  _366
REMARK  152  A    between atoms: _366  and  _367
REMARK  153  A    between atoms: _366  and  _369
REMARK  154  A    between atoms: _369  and  _370
REMARK  155  A    between atoms: _373  and  _375
REMARK  156  A    between atoms: _375  and  _376
REMARK  157  A    between atoms: _375  and  _378
REMARK  158  A    between atoms: _378  and  _379
REMARK  159  A    between atoms: _382  and  _384
REMARK  160  A    between atoms: _384  and  _385
REMARK  161  A    between atoms: _384  and  _387
REMARK  162  A    between atoms: _390  and  _392
REMARK  163  A    between atoms: _392  and  _393
REMARK  164  A    between atoms: _392  and  _395
REMARK  165  A    between atoms: _395  and  _396
REMARK  166  A    between atoms: _399  and  _401
REMARK  167  A    between atoms: _401  and  _402
REMARK  168  A    between atoms: _401  and  _404
REMARK  169  A    between atoms: _404  and  _405
REMARK  170  A    between atoms: _405  and  _406
REMARK  171  A    between atoms: _406  and  _407
REMARK  172  A    between atoms: _407  and  _408
REMARK  173  A    between atoms: _412  and  _414
REMARK  174  A    between atoms: _414  and  _415
REMARK  175  A    between atoms: _414  and  _417
REMARK  176  A    between atoms: _417  and  _418
REMARK  177  A    between atoms: _418  and  _419
REMARK  178  A    between atoms: _421  and  _423
REMARK  179  A    between atoms: _423  and  _424
REMARK  180  A    between atoms: _423  and  _426
REMARK  181  A    between atoms: _426  and  _427
REMARK  182  A    between atoms: _430  and  _432
REMARK  183  A    between atoms: _432  and  _433
REMARK  184  A    between atoms: _435  and  _437
REMARK  185  A    between atoms: _437  and  _438
REMARK  186  A    between atoms: _440  and  _442
REMARK  187  A    between atoms: _442  and  _443
REMARK  188  A    between atoms: _442  and  _445
REMARK  189  A    between atoms: _445  and  _446
REMARK  190  A    between atoms: _449  and  _451
REMARK  191  A    between atoms: _451  and  _452
REMARK  192  A    between atoms: _454  and  _456
REMARK  193  A    between atoms: _456  and  _457
REMARK  194  A    between atoms: _459  and  _461
REMARK  195  A    between atoms: _461  and  _462
REMARK  196  A    between atoms: _461  and  _464
REMARK  197  A    between atoms: _464  and  _465
REMARK  198  A    between atoms: _471  and  _473
REMARK  199  A    between atoms: _473  and  _474
REMARK  200  A    between atoms: _473  and  _476
REMARK  201  A    between atoms: _476  and  _477
REMARK  202  A    between atoms: _480  and  _482
REMARK  203  A    between atoms: _482  and  _483
REMARK  204  A    between atoms: _482  and  _485
REMARK  205  A    between atoms: _488  and  _490
REMARK  206  A    between atoms: _490  and  _491
REMARK  207  A    between atoms: _490  and  _493
REMARK  208  A    between atoms: _493  and  _494
REMARK  209  A    between atoms: _497  and  _499
REMARK  210  A    between atoms: _499  and  _500
REMARK  211  A    between atoms: _499  and  _502
REMARK  212  A    between atoms: _502  and  _503
REMARK  213  A    between atoms: _507  and  _508
REMARK  214  A    between atoms: _513  and  _515
REMARK  215  A    between atoms: _515  and  _516
REMARK  216  A    between atoms: _515  and  _518
REMARK  217  A    between atoms: _518  and  _519
REMARK  218  A    between atoms: _522  and  _524
REMARK  219  A    between atoms: _524  and  _525
REMARK  220  A    between atoms: _524  and  _527
REMARK  221  A    between atoms: _527  and  _528
REMARK  222  A    between atoms: _533  and  _535
REMARK  223  A    between atoms: _535  and  _536
REMARK  224  A    between atoms: _535  and  _538
REMARK  225  A    between atoms: _541  and  _543
REMARK  226  A    between atoms: _543  and  _544
REMARK  227  A    between atoms: _543  and  _546
REMARK  228  A    between atoms: _546  and  _547
REMARK  229  A    between atoms: _550  and  _552
REMARK  230  A    between atoms: _552  and  _553
REMARK  231  A    between atoms: _555  and  _557
REMARK  232  A    between atoms: _557  and  _558
REMARK  233  A    between atoms: _557  and  _560
REMARK  234  A    between atoms: _560  and  _561
REMARK  235  A    between atoms: _561  and  _562
REMARK  236  A    between atoms: _562  and  _563
REMARK  237  A    between atoms: _572  and  _574
REMARK  238  A    between atoms: _574  and  _575
REMARK  239  A    between atoms: _574  and  _577
REMARK  240  A    between atoms: _577  and  _578
REMARK                            x       y       z     vdW  Elec       q    Type
REMARK                         _______ _______ _______ _____ _____    ______ ____
ROOT
ATOM      1  O   HOH     1      -0.731   6.210   4.665  0.00  0.00    +0.000 OA
ENDROOT
TORSDOF 0
