REMARK  Name = ../refined-set-2016/5e2o/5e2o_pocket.pdb
REMARK  212 active torsions:
REMARK  status: ('A' for Active; 'I' for Inactive)
REMARK    1  A    between atoms: _1  and  _5
REMARK    2  A    between atoms: _5  and  _6
REMARK    3  A    between atoms: _5  and  _8
REMARK    4  A    between atoms: _8  and  _9
REMARK    5  A    between atoms: _12  and  _14
REMARK    6  A    between atoms: _14  and  _15
REMARK    7  A    between atoms: _14  and  _17
REMARK    8  A    between atoms: _20  and  _22
REMARK    9  A    between atoms: _22  and  _23
REMARK   10  A    between atoms: _22  and  _25
REMARK   11  A    between atoms: _25  and  _26
REMARK   12  A    between atoms: _29  and  _31
REMARK   13  A    between atoms: _31  and  _32
REMARK   14  A    between atoms: _31  and  _34
REMARK   15  A    between atoms: _34  and  _35
REMARK   16  A    between atoms: _35  and  _36
REMARK   17  A    between atoms: _36  and  _37
REMARK   18  A    between atoms: _46  and  _48
REMARK   19  A    between atoms: _48  and  _49
REMARK   20  A    between atoms: _48  and  _51
REMARK   21  A    between atoms: _51  and  _52
REMARK   22  A    between atoms: _57  and  _59
REMARK   23  A    between atoms: _59  and  _60
REMARK   24  A    between atoms: _59  and  _62
REMARK   25  A    between atoms: _62  and  _63
REMARK   26  A    between atoms: _66  and  _68
REMARK   27  A    between atoms: _68  and  _69
REMARK   28  A    between atoms: _68  and  _71
REMARK   29  A    between atoms: _71  and  _72
REMARK   30  A    between atoms: _72  and  _107
REMARK   31  A    between atoms: _73  and  _75
REMARK   32  A    between atoms: _75  and  _76
REMARK   33  A    between atoms: _78  and  _80
REMARK   34  A    between atoms: _80  and  _81
REMARK   35  A    between atoms: _84  and  _86
REMARK   36  A    between atoms: _86  and  _87
REMARK   37  A    between atoms: _90  and  _92
REMARK   38  A    between atoms: _92  and  _93
REMARK   39  A    between atoms: _92  and  _95
REMARK   40  A    between atoms: _95  and  _96
REMARK   41  A    between atoms: _101  and  _103
REMARK   42  A    between atoms: _103  and  _104
REMARK   43  A    between atoms: _103  and  _106
REMARK   44  A    between atoms: _106  and  _107
REMARK   45  A    between atoms: _108  and  _110
REMARK   46  A    between atoms: _110  and  _111
REMARK   47  A    between atoms: _110  and  _113
REMARK   48  A    between atoms: _113  and  _114
REMARK   49  A    between atoms: _120  and  _122
REMARK   50  A    between atoms: _122  and  _123
REMARK   51  A    between atoms: _122  and  _125
REMARK   52  A    between atoms: _125  and  _126
REMARK   53  A    between atoms: _131  and  _132
REMARK   54  A    between atoms: _134  and  _136
REMARK   55  A    between atoms: _136  and  _137
REMARK   56  A    between atoms: _136  and  _139
REMARK   57  A    between atoms: _142  and  _144
REMARK   58  A    between atoms: _144  and  _145
REMARK   59  A    between atoms: _148  and  _150
REMARK   60  A    between atoms: _150  and  _151
REMARK   61  A    between atoms: _150  and  _153
REMARK   62  A    between atoms: _153  and  _154
REMARK   63  A    between atoms: _157  and  _159
REMARK   64  A    between atoms: _159  and  _160
REMARK   65  A    between atoms: _159  and  _162
REMARK   66  A    between atoms: _165  and  _167
REMARK   67  A    between atoms: _167  and  _168
REMARK   68  A    between atoms: _167  and  _170
REMARK   69  A    between atoms: _170  and  _171
REMARK   70  A    between atoms: _181  and  _183
REMARK   71  A    between atoms: _183  and  _184
REMARK   72  A    between atoms: _186  and  _188
REMARK   73  A    between atoms: _188  and  _189
REMARK   74  A    between atoms: _188  and  _191
REMARK   75  A    between atoms: _191  and  _192
REMARK   76  A    between atoms: _197  and  _198
REMARK   77  A    between atoms: _200  and  _202
REMARK   78  A    between atoms: _202  and  _203
REMARK   79  A    between atoms: _202  and  _205
REMARK   80  A    between atoms: _205  and  _206
REMARK   81  A    between atoms: _206  and  _207
REMARK   82  A    between atoms: _207  and  _208
REMARK   83  A    between atoms: _208  and  _209
REMARK   84  A    between atoms: _213  and  _215
REMARK   85  A    between atoms: _215  and  _216
REMARK   86  A    between atoms: _215  and  _218
REMARK   87  A    between atoms: _218  and  _219
REMARK   88  A    between atoms: _222  and  _224
REMARK   89  A    between atoms: _224  and  _225
REMARK   90  A    between atoms: _224  and  _227
REMARK   91  A    between atoms: _227  and  _228
REMARK   92  A    between atoms: _231  and  _233
REMARK   93  A    between atoms: _233  and  _234
REMARK   94  A    between atoms: _233  and  _236
REMARK   95  A    between atoms: _236  and  _237
REMARK   96  A    between atoms: _237  and  _238
REMARK   97  A    between atoms: _238  and  _239
REMARK   98  A    between atoms: _239  and  _240
REMARK   99  A    between atoms: _244  and  _246
REMARK  100  A    between atoms: _246  and  _247
REMARK  101  A    between atoms: _246  and  _249
REMARK  102  A    between atoms: _249  and  _250
REMARK  103  A    between atoms: _253  and  _255
REMARK  104  A    between atoms: _255  and  _256
REMARK  105  A    between atoms: _255  and  _258
REMARK  106  A    between atoms: _258  and  _259
REMARK  107  A    between atoms: _264  and  _265
REMARK  108  A    between atoms: _267  and  _269
REMARK  109  A    between atoms: _269  and  _270
REMARK  110  A    between atoms: _269  and  _272
REMARK  111  A    between atoms: _272  and  _273
REMARK  112  A    between atoms: _276  and  _278
REMARK  113  A    between atoms: _278  and  _279
REMARK  114  A    between atoms: _278  and  _281
REMARK  115  A    between atoms: _283  and  _285
REMARK  116  A    between atoms: _285  and  _286
REMARK  117  A    between atoms: _289  and  _291
REMARK  118  A    between atoms: _291  and  _292
REMARK  119  A    between atoms: _291  and  _294
REMARK  120  A    between atoms: _294  and  _295
REMARK  121  A    between atoms: _295  and  _296
REMARK  122  A    between atoms: _296  and  _297
REMARK  123  A    between atoms: _297  and  _298
REMARK  124  A    between atoms: _302  and  _304
REMARK  125  A    between atoms: _304  and  _305
REMARK  126  A    between atoms: _304  and  _307
REMARK  127  A    between atoms: _307  and  _308
REMARK  128  A    between atoms: _311  and  _313
REMARK  129  A    between atoms: _313  and  _314
REMARK  130  A    between atoms: _317  and  _319
REMARK  131  A    between atoms: _319  and  _320
REMARK  132  A    between atoms: _319  and  _322
REMARK  133  A    between atoms: _322  and  _323
REMARK  134  A    between atoms: _323  and  _437
REMARK  135  A    between atoms: _324  and  _326
REMARK  136  A    between atoms: _326  and  _327
REMARK  137  A    between atoms: _326  and  _329
REMARK  138  A    between atoms: _329  and  _330
REMARK  139  A    between atoms: _330  and  _331
REMARK  140  A    between atoms: _331  and  _332
REMARK  141  A    between atoms: _332  and  _333
REMARK  142  A    between atoms: _337  and  _339
REMARK  143  A    between atoms: _339  and  _340
REMARK  144  A    between atoms: _342  and  _344
REMARK  145  A    between atoms: _344  and  _345
REMARK  146  A    between atoms: _344  and  _347
REMARK  147  A    between atoms: _347  and  _348
REMARK  148  A    between atoms: _351  and  _353
REMARK  149  A    between atoms: _353  and  _354
REMARK  150  A    between atoms: _353  and  _356
REMARK  151  A    between atoms: _356  and  _357
REMARK  152  A    between atoms: _359  and  _361
REMARK  153  A    between atoms: _361  and  _362
REMARK  154  A    between atoms: _364  and  _366
REMARK  155  A    between atoms: _366  and  _367
REMARK  156  A    between atoms: _369  and  _371
REMARK  157  A    between atoms: _371  and  _372
REMARK  158  A    between atoms: _371  and  _374
REMARK  159  A    between atoms: _374  and  _375
REMARK  160  A    between atoms: _378  and  _380
REMARK  161  A    between atoms: _380  and  _381
REMARK  162  A    between atoms: _380  and  _383
REMARK  163  A    between atoms: _383  and  _384
REMARK  164  A    between atoms: _387  and  _389
REMARK  165  A    between atoms: _389  and  _390
REMARK  166  A    between atoms: _389  and  _392
REMARK  167  A    between atoms: _392  and  _393
REMARK  168  A    between atoms: _395  and  _397
REMARK  169  A    between atoms: _397  and  _398
REMARK  170  A    between atoms: _397  and  _400
REMARK  171  A    between atoms: _400  and  _401
REMARK  172  A    between atoms: _411  and  _413
REMARK  173  A    between atoms: _413  and  _414
REMARK  174  A    between atoms: _416  and  _418
REMARK  175  A    between atoms: _418  and  _419
REMARK  176  A    between atoms: _418  and  _421
REMARK  177  A    between atoms: _421  and  _422
REMARK  178  A    between atoms: _422  and  _423
REMARK  179  A    between atoms: _426  and  _428
REMARK  180  A    between atoms: _428  and  _429
REMARK  181  A    between atoms: _431  and  _433
REMARK  182  A    between atoms: _433  and  _434
REMARK  183  A    between atoms: _433  and  _436
REMARK  184  A    between atoms: _436  and  _437
REMARK  185  A    between atoms: _438  and  _440
REMARK  186  A    between atoms: _440  and  _441
REMARK  187  A    between atoms: _444  and  _446
REMARK  188  A    between atoms: _446  and  _447
REMARK  189  A    between atoms: _446  and  _449
REMARK  190  A    between atoms: _449  and  _450
REMARK  191  A    between atoms: _450  and  _451
REMARK  192  A    between atoms: _456  and  _458
REMARK  193  A    between atoms: _458  and  _459
REMARK  194  A    between atoms: _458  and  _461
REMARK  195  A    between atoms: _461  and  _462
REMARK  196  A    between atoms: _462  and  _463
REMARK  197  A    between atoms: _463  and  _464
REMARK  198  A    between atoms: _474  and  _475
REMARK  199  A    between atoms: _480  and  _482
REMARK  200  A    between atoms: _482  and  _483
REMARK  201  A    between atoms: _485  and  _487
REMARK  202  A    between atoms: _487  and  _488
REMARK  203  A    between atoms: _487  and  _490
REMARK  204  A    between atoms: _493  and  _495
REMARK  205  A    between atoms: _495  and  _496
REMARK  206  A    between atoms: _495  and  _498
REMARK  207  A    between atoms: _498  and  _499
REMARK  208  A    between atoms: _504  and  _505
REMARK  209  A    between atoms: _507  and  _509
REMARK  210  A    between atoms: _509  and  _510
REMARK  211  A    between atoms: _509  and  _512
REMARK  212  A    between atoms: _512  and  _513
REMARK                            x       y       z     vdW  Elec       q    Type
REMARK                         _______ _______ _______ _____ _____    ______ ____
ROOT
ATOM      1  C   ILE A   1      41.995  -9.274  33.434  0.00  0.00    +0.202 C 
ATOM      2  O   ILE A   1      43.100  -8.943  33.866  0.00  0.00    -0.277 OA
ATOM      3  N   VAL A   2      41.361  -8.611  32.469  0.00  0.00    -0.301 N 
ATOM      4  H   VAL A   2      40.426  -8.952  32.166  0.00  0.00    +0.150 HD
ENDROOT
BRANCH   1   5
ATOM      5  CA  ILE A   1      41.255 -10.456  34.058  0.00  0.00    +0.013 C 
BRANCH   5   6
ATOM      6  N   ILE A   1      42.112 -11.634  33.969  0.00  0.00    +0.387 N 
ATOM      7  H1  ILE A   1      42.998 -11.456  34.484  0.00  0.00    -0.089 HD
ATOM      8  H2  ILE A   1      41.623 -12.450  34.390  0.00  0.00    -0.089 HD
ATOM      9  H3  ILE A   1      42.323 -11.833  32.970  0.00  0.00    -0.089 HD
ENDBRANCH   5   6
BRANCH   5  10
ATOM     10  CB  ILE A   1      40.827 -10.123  35.536  0.00  0.00    -0.011 C 
ATOM     11  CG2 ILE A   1      39.985  -8.797  35.627  0.00  0.00    -0.002 C 
BRANCH  10  12
ATOM     12  CG1 ILE A   1      40.088 -11.303  36.246  0.00  0.00    -0.002 C 
ATOM     13  CD1 ILE A   1      38.624 -11.591  35.783  0.00  0.00    -0.000 C 
ENDBRANCH  10  12
ENDBRANCH   5  10
ENDBRANCH   1   5
BRANCH   3  14
ATOM     14  CA  VAL A   2      41.919  -7.420  31.810  0.00  0.00    +0.137 C 
BRANCH  14  15
ATOM     15  CB  VAL A   2      41.509  -7.351  30.300  0.00  0.00    +0.026 C 
ATOM     16  CG2 VAL A   2      42.161  -6.145  29.601  0.00  0.00    +0.002 C 
ATOM     17  CG1 VAL A   2      41.841  -8.644  29.566  0.00  0.00    +0.002 C 
ENDBRANCH  14  15
BRANCH  14  18
ATOM     18  C   VAL A   2      41.355  -6.194  32.557  0.00  0.00    +0.227 C 
ATOM     19  O   VAL A   2      40.166  -6.170  32.848  0.00  0.00    -0.286 OA
ENDBRANCH  14  18
ENDBRANCH   3  14
TORSDOF 7
REMARK  Name = ../refined-set-2016/5e2o/5e2o_pocket.pdb
REMARK  212 active torsions:
REMARK  status: ('A' for Active; 'I' for Inactive)
REMARK    1  A    between atoms: _1  and  _5
REMARK    2  A    between atoms: _5  and  _6
REMARK    3  A    between atoms: _5  and  _8
REMARK    4  A    between atoms: _8  and  _9
REMARK    5  A    between atoms: _12  and  _14
REMARK    6  A    between atoms: _14  and  _15
REMARK    7  A    between atoms: _14  and  _17
REMARK    8  A    between atoms: _20  and  _22
REMARK    9  A    between atoms: _22  and  _23
REMARK   10  A    between atoms: _22  and  _25
REMARK   11  A    between atoms: _25  and  _26
REMARK   12  A    between atoms: _29  and  _31
REMARK   13  A    between atoms: _31  and  _32
REMARK   14  A    between atoms: _31  and  _34
REMARK   15  A    between atoms: _34  and  _35
REMARK   16  A    between atoms: _35  and  _36
REMARK   17  A    between atoms: _36  and  _37
REMARK   18  A    between atoms: _46  and  _48
REMARK   19  A    between atoms: _48  and  _49
REMARK   20  A    between atoms: _48  and  _51
REMARK   21  A    between atoms: _51  and  _52
REMARK   22  A    between atoms: _57  and  _59
REMARK   23  A    between atoms: _59  and  _60
REMARK   24  A    between atoms: _59  and  _62
REMARK   25  A    between atoms: _62  and  _63
REMARK   26  A    between atoms: _66  and  _68
REMARK   27  A    between atoms: _68  and  _69
REMARK   28  A    between atoms: _68  and  _71
REMARK   29  A    between atoms: _71  and  _72
REMARK   30  A    between atoms: _72  and  _107
REMARK   31  A    between atoms: _73  and  _75
REMARK   32  A    between atoms: _75  and  _76
REMARK   33  A    between atoms: _78  and  _80
REMARK   34  A    between atoms: _80  and  _81
REMARK   35  A    between atoms: _84  and  _86
REMARK   36  A    between atoms: _86  and  _87
REMARK   37  A    between atoms: _90  and  _92
REMARK   38  A    between atoms: _92  and  _93
REMARK   39  A    between atoms: _92  and  _95
REMARK   40  A    between atoms: _95  and  _96
REMARK   41  A    between atoms: _101  and  _103
REMARK   42  A    between atoms: _103  and  _104
REMARK   43  A    between atoms: _103  and  _106
REMARK   44  A    between atoms: _106  and  _107
REMARK   45  A    between atoms: _108  and  _110
REMARK   46  A    between atoms: _110  and  _111
REMARK   47  A    between atoms: _110  and  _113
REMARK   48  A    between atoms: _113  and  _114
REMARK   49  A    between atoms: _120  and  _122
REMARK   50  A    between atoms: _122  and  _123
REMARK   51  A    between atoms: _122  and  _125
REMARK   52  A    between atoms: _125  and  _126
REMARK   53  A    between atoms: _131  and  _132
REMARK   54  A    between atoms: _134  and  _136
REMARK   55  A    between atoms: _136  and  _137
REMARK   56  A    between atoms: _136  and  _139
REMARK   57  A    between atoms: _142  and  _144
REMARK   58  A    between atoms: _144  and  _145
REMARK   59  A    between atoms: _148  and  _150
REMARK   60  A    between atoms: _150  and  _151
REMARK   61  A    between atoms: _150  and  _153
REMARK   62  A    between atoms: _153  and  _154
REMARK   63  A    between atoms: _157  and  _159
REMARK   64  A    between atoms: _159  and  _160
REMARK   65  A    between atoms: _159  and  _162
REMARK   66  A    between atoms: _165  and  _167
REMARK   67  A    between atoms: _167  and  _168
REMARK   68  A    between atoms: _167  and  _170
REMARK   69  A    between atoms: _170  and  _171
REMARK   70  A    between atoms: _181  and  _183
REMARK   71  A    between atoms: _183  and  _184
REMARK   72  A    between atoms: _186  and  _188
REMARK   73  A    between atoms: _188  and  _189
REMARK   74  A    between atoms: _188  and  _191
REMARK   75  A    between atoms: _191  and  _192
REMARK   76  A    between atoms: _197  and  _198
REMARK   77  A    between atoms: _200  and  _202
REMARK   78  A    between atoms: _202  and  _203
REMARK   79  A    between atoms: _202  and  _205
REMARK   80  A    between atoms: _205  and  _206
REMARK   81  A    between atoms: _206  and  _207
REMARK   82  A    between atoms: _207  and  _208
REMARK   83  A    between atoms: _208  and  _209
REMARK   84  A    between atoms: _213  and  _215
REMARK   85  A    between atoms: _215  and  _216
REMARK   86  A    between atoms: _215  and  _218
REMARK   87  A    between atoms: _218  and  _219
REMARK   88  A    between atoms: _222  and  _224
REMARK   89  A    between atoms: _224  and  _225
REMARK   90  A    between atoms: _224  and  _227
REMARK   91  A    between atoms: _227  and  _228
REMARK   92  A    between atoms: _231  and  _233
REMARK   93  A    between atoms: _233  and  _234
REMARK   94  A    between atoms: _233  and  _236
REMARK   95  A    between atoms: _236  and  _237
REMARK   96  A    between atoms: _237  and  _238
REMARK   97  A    between atoms: _238  and  _239
REMARK   98  A    between atoms: _239  and  _240
REMARK   99  A    between atoms: _244  and  _246
REMARK  100  A    between atoms: _246  and  _247
REMARK  101  A    between atoms: _246  and  _249
REMARK  102  A    between atoms: _249  and  _250
REMARK  103  A    between atoms: _253  and  _255
REMARK  104  A    between atoms: _255  and  _256
REMARK  105  A    between atoms: _255  and  _258
REMARK  106  A    between atoms: _258  and  _259
REMARK  107  A    between atoms: _264  and  _265
REMARK  108  A    between atoms: _267  and  _269
REMARK  109  A    between atoms: _269  and  _270
REMARK  110  A    between atoms: _269  and  _272
REMARK  111  A    between atoms: _272  and  _273
REMARK  112  A    between atoms: _276  and  _278
REMARK  113  A    between atoms: _278  and  _279
REMARK  114  A    between atoms: _278  and  _281
REMARK  115  A    between atoms: _283  and  _285
REMARK  116  A    between atoms: _285  and  _286
REMARK  117  A    between atoms: _289  and  _291
REMARK  118  A    between atoms: _291  and  _292
REMARK  119  A    between atoms: _291  and  _294
REMARK  120  A    between atoms: _294  and  _295
REMARK  121  A    between atoms: _295  and  _296
REMARK  122  A    between atoms: _296  and  _297
REMARK  123  A    between atoms: _297  and  _298
REMARK  124  A    between atoms: _302  and  _304
REMARK  125  A    between atoms: _304  and  _305
REMARK  126  A    between atoms: _304  and  _307
REMARK  127  A    between atoms: _307  and  _308
REMARK  128  A    between atoms: _311  and  _313
REMARK  129  A    between atoms: _313  and  _314
REMARK  130  A    between atoms: _317  and  _319
REMARK  131  A    between atoms: _319  and  _320
REMARK  132  A    between atoms: _319  and  _322
REMARK  133  A    between atoms: _322  and  _323
REMARK  134  A    between atoms: _323  and  _437
REMARK  135  A    between atoms: _324  and  _326
REMARK  136  A    between atoms: _326  and  _327
REMARK  137  A    between atoms: _326  and  _329
REMARK  138  A    between atoms: _329  and  _330
REMARK  139  A    between atoms: _330  and  _331
REMARK  140  A    between atoms: _331  and  _332
REMARK  141  A    between atoms: _332  and  _333
REMARK  142  A    between atoms: _337  and  _339
REMARK  143  A    between atoms: _339  and  _340
REMARK  144  A    between atoms: _342  and  _344
REMARK  145  A    between atoms: _344  and  _345
REMARK  146  A    between atoms: _344  and  _347
REMARK  147  A    between atoms: _347  and  _348
REMARK  148  A    between atoms: _351  and  _353
REMARK  149  A    between atoms: _353  and  _354
REMARK  150  A    between atoms: _353  and  _356
REMARK  151  A    between atoms: _356  and  _357
REMARK  152  A    between atoms: _359  and  _361
REMARK  153  A    between atoms: _361  and  _362
REMARK  154  A    between atoms: _364  and  _366
REMARK  155  A    between atoms: _366  and  _367
REMARK  156  A    between atoms: _369  and  _371
REMARK  157  A    between atoms: _371  and  _372
REMARK  158  A    between atoms: _371  and  _374
REMARK  159  A    between atoms: _374  and  _375
REMARK  160  A    between atoms: _378  and  _380
REMARK  161  A    between atoms: _380  and  _381
REMARK  162  A    between atoms: _380  and  _383
REMARK  163  A    between atoms: _383  and  _384
REMARK  164  A    between atoms: _387  and  _389
REMARK  165  A    between atoms: _389  and  _390
REMARK  166  A    between atoms: _389  and  _392
REMARK  167  A    between atoms: _392  and  _393
REMARK  168  A    between atoms: _395  and  _397
REMARK  169  A    between atoms: _397  and  _398
REMARK  170  A    between atoms: _397  and  _400
REMARK  171  A    between atoms: _400  and  _401
REMARK  172  A    between atoms: _411  and  _413
REMARK  173  A    between atoms: _413  and  _414
REMARK  174  A    between atoms: _416  and  _418
REMARK  175  A    between atoms: _418  and  _419
REMARK  176  A    between atoms: _418  and  _421
REMARK  177  A    between atoms: _421  and  _422
REMARK  178  A    between atoms: _422  and  _423
REMARK  179  A    between atoms: _426  and  _428
REMARK  180  A    between atoms: _428  and  _429
REMARK  181  A    between atoms: _431  and  _433
REMARK  182  A    between atoms: _433  and  _434
REMARK  183  A    between atoms: _433  and  _436
REMARK  184  A    between atoms: _436  and  _437
REMARK  185  A    between atoms: _438  and  _440
REMARK  186  A    between atoms: _440  and  _441
REMARK  187  A    between atoms: _444  and  _446
REMARK  188  A    between atoms: _446  and  _447
REMARK  189  A    between atoms: _446  and  _449
REMARK  190  A    between atoms: _449  and  _450
REMARK  191  A    between atoms: _450  and  _451
REMARK  192  A    between atoms: _456  and  _458
REMARK  193  A    between atoms: _458  and  _459
REMARK  194  A    between atoms: _458  and  _461
REMARK  195  A    between atoms: _461  and  _462
REMARK  196  A    between atoms: _462  and  _463
REMARK  197  A    between atoms: _463  and  _464
REMARK  198  A    between atoms: _474  and  _475
REMARK  199  A    between atoms: _480  and  _482
REMARK  200  A    between atoms: _482  and  _483
REMARK  201  A    between atoms: _485  and  _487
REMARK  202  A    between atoms: _487  and  _488
REMARK  203  A    between atoms: _487  and  _490
REMARK  204  A    between atoms: _493  and  _495
REMARK  205  A    between atoms: _495  and  _496
REMARK  206  A    between atoms: _495  and  _498
REMARK  207  A    between atoms: _498  and  _499
REMARK  208  A    between atoms: _504  and  _505
REMARK  209  A    between atoms: _507  and  _509
REMARK  210  A    between atoms: _509  and  _510
REMARK  211  A    between atoms: _509  and  _512
REMARK  212  A    between atoms: _512  and  _513
REMARK                            x       y       z     vdW  Elec       q    Type
REMARK                         _______ _______ _______ _____ _____    ______ ____
ROOT
ATOM      1  CA  THR A   1      45.421 -30.150  36.989  0.00  0.00    +0.160 C 
ENDROOT
BRANCH   1   2
ATOM      2  N   THR A   1      45.284 -28.824  37.579  0.00  0.00    -0.237 NA
ATOM      3  H   THR A   1      45.842 -28.040  37.183  0.00  0.00    +0.142 HD
ENDBRANCH   1   2
BRANCH   1   4
ATOM      4  C   THR A   1      46.849 -30.566  37.344  0.00  0.00    +0.227 C 
ATOM      5  O   THR A   1      47.693 -29.668  37.477  0.00  0.00    -0.287 OA
ENDBRANCH   1   4
BRANCH   1   6
ATOM      6  CB  THR A   1      45.107 -30.134  35.466  0.00  0.00    +0.134 C 
ATOM      7  CG2 THR A   1      46.012 -29.195  34.664  0.00  0.00    +0.034 C 
BRANCH   6   8
ATOM      8  OG1 THR A   1      45.251 -31.458  34.960  0.00  0.00    -0.383 OA
ATOM      9  HG1 THR A   1      45.054 -31.463  33.990  0.00  0.00    +0.210 HD
ENDBRANCH   6   8
ENDBRANCH   1   6
TORSDOF 4
REMARK  Name = ../refined-set-2016/5e2o/5e2o_pocket.pdb
REMARK  212 active torsions:
REMARK  status: ('A' for Active; 'I' for Inactive)
REMARK    1  A    between atoms: _1  and  _5
REMARK    2  A    between atoms: _5  and  _6
REMARK    3  A    between atoms: _5  and  _8
REMARK    4  A    between atoms: _8  and  _9
REMARK    5  A    between atoms: _12  and  _14
REMARK    6  A    between atoms: _14  and  _15
REMARK    7  A    between atoms: _14  and  _17
REMARK    8  A    between atoms: _20  and  _22
REMARK    9  A    between atoms: _22  and  _23
REMARK   10  A    between atoms: _22  and  _25
REMARK   11  A    between atoms: _25  and  _26
REMARK   12  A    between atoms: _29  and  _31
REMARK   13  A    between atoms: _31  and  _32
REMARK   14  A    between atoms: _31  and  _34
REMARK   15  A    between atoms: _34  and  _35
REMARK   16  A    between atoms: _35  and  _36
REMARK   17  A    between atoms: _36  and  _37
REMARK   18  A    between atoms: _46  and  _48
REMARK   19  A    between atoms: _48  and  _49
REMARK   20  A    between atoms: _48  and  _51
REMARK   21  A    between atoms: _51  and  _52
REMARK   22  A    between atoms: _57  and  _59
REMARK   23  A    between atoms: _59  and  _60
REMARK   24  A    between atoms: _59  and  _62
REMARK   25  A    between atoms: _62  and  _63
REMARK   26  A    between atoms: _66  and  _68
REMARK   27  A    between atoms: _68  and  _69
REMARK   28  A    between atoms: _68  and  _71
REMARK   29  A    between atoms: _71  and  _72
REMARK   30  A    between atoms: _72  and  _107
REMARK   31  A    between atoms: _73  and  _75
REMARK   32  A    between atoms: _75  and  _76
REMARK   33  A    between atoms: _78  and  _80
REMARK   34  A    between atoms: _80  and  _81
REMARK   35  A    between atoms: _84  and  _86
REMARK   36  A    between atoms: _86  and  _87
REMARK   37  A    between atoms: _90  and  _92
REMARK   38  A    between atoms: _92  and  _93
REMARK   39  A    between atoms: _92  and  _95
REMARK   40  A    between atoms: _95  and  _96
REMARK   41  A    between atoms: _101  and  _103
REMARK   42  A    between atoms: _103  and  _104
REMARK   43  A    between atoms: _103  and  _106
REMARK   44  A    between atoms: _106  and  _107
REMARK   45  A    between atoms: _108  and  _110
REMARK   46  A    between atoms: _110  and  _111
REMARK   47  A    between atoms: _110  and  _113
REMARK   48  A    between atoms: _113  and  _114
REMARK   49  A    between atoms: _120  and  _122
REMARK   50  A    between atoms: _122  and  _123
REMARK   51  A    between atoms: _122  and  _125
REMARK   52  A    between atoms: _125  and  _126
REMARK   53  A    between atoms: _131  and  _132
REMARK   54  A    between atoms: _134  and  _136
REMARK   55  A    between atoms: _136  and  _137
REMARK   56  A    between atoms: _136  and  _139
REMARK   57  A    between atoms: _142  and  _144
REMARK   58  A    between atoms: _144  and  _145
REMARK   59  A    between atoms: _148  and  _150
REMARK   60  A    between atoms: _150  and  _151
REMARK   61  A    between atoms: _150  and  _153
REMARK   62  A    between atoms: _153  and  _154
REMARK   63  A    between atoms: _157  and  _159
REMARK   64  A    between atoms: _159  and  _160
REMARK   65  A    between atoms: _159  and  _162
REMARK   66  A    between atoms: _165  and  _167
REMARK   67  A    between atoms: _167  and  _168
REMARK   68  A    between atoms: _167  and  _170
REMARK   69  A    between atoms: _170  and  _171
REMARK   70  A    between atoms: _181  and  _183
REMARK   71  A    between atoms: _183  and  _184
REMARK   72  A    between atoms: _186  and  _188
REMARK   73  A    between atoms: _188  and  _189
REMARK   74  A    between atoms: _188  and  _191
REMARK   75  A    between atoms: _191  and  _192
REMARK   76  A    between atoms: _197  and  _198
REMARK   77  A    between atoms: _200  and  _202
REMARK   78  A    between atoms: _202  and  _203
REMARK   79  A    between atoms: _202  and  _205
REMARK   80  A    between atoms: _205  and  _206
REMARK   81  A    between atoms: _206  and  _207
REMARK   82  A    between atoms: _207  and  _208
REMARK   83  A    between atoms: _208  and  _209
REMARK   84  A    between atoms: _213  and  _215
REMARK   85  A    between atoms: _215  and  _216
REMARK   86  A    between atoms: _215  and  _218
REMARK   87  A    between atoms: _218  and  _219
REMARK   88  A    between atoms: _222  and  _224
REMARK   89  A    between atoms: _224  and  _225
REMARK   90  A    between atoms: _224  and  _227
REMARK   91  A    between atoms: _227  and  _228
REMARK   92  A    between atoms: _231  and  _233
REMARK   93  A    between atoms: _233  and  _234
REMARK   94  A    between atoms: _233  and  _236
REMARK   95  A    between atoms: _236  and  _237
REMARK   96  A    between atoms: _237  and  _238
REMARK   97  A    between atoms: _238  and  _239
REMARK   98  A    between atoms: _239  and  _240
REMARK   99  A    between atoms: _244  and  _246
REMARK  100  A    between atoms: _246  and  _247
REMARK  101  A    between atoms: _246  and  _249
REMARK  102  A    between atoms: _249  and  _250
REMARK  103  A    between atoms: _253  and  _255
REMARK  104  A    between atoms: _255  and  _256
REMARK  105  A    between atoms: _255  and  _258
REMARK  106  A    between atoms: _258  and  _259
REMARK  107  A    between atoms: _264  and  _265
REMARK  108  A    between atoms: _267  and  _269
REMARK  109  A    between atoms: _269  and  _270
REMARK  110  A    between atoms: _269  and  _272
REMARK  111  A    between atoms: _272  and  _273
REMARK  112  A    between atoms: _276  and  _278
REMARK  113  A    between atoms: _278  and  _279
REMARK  114  A    between atoms: _278  and  _281
REMARK  115  A    between atoms: _283  and  _285
REMARK  116  A    between atoms: _285  and  _286
REMARK  117  A    between atoms: _289  and  _291
REMARK  118  A    between atoms: _291  and  _292
REMARK  119  A    between atoms: _291  and  _294
REMARK  120  A    between atoms: _294  and  _295
REMARK  121  A    between atoms: _295  and  _296
REMARK  122  A    between atoms: _296  and  _297
REMARK  123  A    between atoms: _297  and  _298
REMARK  124  A    between atoms: _302  and  _304
REMARK  125  A    between atoms: _304  and  _305
REMARK  126  A    between atoms: _304  and  _307
REMARK  127  A    between atoms: _307  and  _308
REMARK  128  A    between atoms: _311  and  _313
REMARK  129  A    between atoms: _313  and  _314
REMARK  130  A    between atoms: _317  and  _319
REMARK  131  A    between atoms: _319  and  _320
REMARK  132  A    between atoms: _319  and  _322
REMARK  133  A    between atoms: _322  and  _323
REMARK  134  A    between atoms: _323  and  _437
REMARK  135  A    between atoms: _324  and  _326
REMARK  136  A    between atoms: _326  and  _327
REMARK  137  A    between atoms: _326  and  _329
REMARK  138  A    between atoms: _329  and  _330
REMARK  139  A    between atoms: _330  and  _331
REMARK  140  A    between atoms: _331  and  _332
REMARK  141  A    between atoms: _332  and  _333
REMARK  142  A    between atoms: _337  and  _339
REMARK  143  A    between atoms: _339  and  _340
REMARK  144  A    between atoms: _342  and  _344
REMARK  145  A    between atoms: _344  and  _345
REMARK  146  A    between atoms: _344  and  _347
REMARK  147  A    between atoms: _347  and  _348
REMARK  148  A    between atoms: _351  and  _353
REMARK  149  A    between atoms: _353  and  _354
REMARK  150  A    between atoms: _353  and  _356
REMARK  151  A    between atoms: _356  and  _357
REMARK  152  A    between atoms: _359  and  _361
REMARK  153  A    between atoms: _361  and  _362
REMARK  154  A    between atoms: _364  and  _366
REMARK  155  A    between atoms: _366  and  _367
REMARK  156  A    between atoms: _369  and  _371
REMARK  157  A    between atoms: _371  and  _372
REMARK  158  A    between atoms: _371  and  _374
REMARK  159  A    between atoms: _374  and  _375
REMARK  160  A    between atoms: _378  and  _380
REMARK  161  A    between atoms: _380  and  _381
REMARK  162  A    between atoms: _380  and  _383
REMARK  163  A    between atoms: _383  and  _384
REMARK  164  A    between atoms: _387  and  _389
REMARK  165  A    between atoms: _389  and  _390
REMARK  166  A    between atoms: _389  and  _392
REMARK  167  A    between atoms: _392  and  _393
REMARK  168  A    between atoms: _395  and  _397
REMARK  169  A    between atoms: _397  and  _398
REMARK  170  A    between atoms: _397  and  _400
REMARK  171  A    between atoms: _400  and  _401
REMARK  172  A    between atoms: _411  and  _413
REMARK  173  A    between atoms: _413  and  _414
REMARK  174  A    between atoms: _416  and  _418
REMARK  175  A    between atoms: _418  and  _419
REMARK  176  A    between atoms: _418  and  _421
REMARK  177  A    between atoms: _421  and  _422
REMARK  178  A    between atoms: _422  and  _423
REMARK  179  A    between atoms: _426  and  _428
REMARK  180  A    between atoms: _428  and  _429
REMARK  181  A    between atoms: _431  and  _433
REMARK  182  A    between atoms: _433  and  _434
REMARK  183  A    between atoms: _433  and  _436
REMARK  184  A    between atoms: _436  and  _437
REMARK  185  A    between atoms: _438  and  _440
REMARK  186  A    between atoms: _440  and  _441
REMARK  187  A    between atoms: _444  and  _446
REMARK  188  A    between atoms: _446  and  _447
REMARK  189  A    between atoms: _446  and  _449
REMARK  190  A    between atoms: _449  and  _450
REMARK  191  A    between atoms: _450  and  _451
REMARK  192  A    between atoms: _456  and  _458
REMARK  193  A    between atoms: _458  and  _459
REMARK  194  A    between atoms: _458  and  _461
REMARK  195  A    between atoms: _461  and  _462
REMARK  196  A    between atoms: _462  and  _463
REMARK  197  A    between atoms: _463  and  _464
REMARK  198  A    between atoms: _474  and  _475
REMARK  199  A    between atoms: _480  and  _482
REMARK  200  A    between atoms: _482  and  _483
REMARK  201  A    between atoms: _485  and  _487
REMARK  202  A    between atoms: _487  and  _488
REMARK  203  A    between atoms: _487  and  _490
REMARK  204  A    between atoms: _493  and  _495
REMARK  205  A    between atoms: _495  and  _496
REMARK  206  A    between atoms: _495  and  _498
REMARK  207  A    between atoms: _498  and  _499
REMARK  208  A    between atoms: _504  and  _505
REMARK  209  A    between atoms: _507  and  _509
REMARK  210  A    between atoms: _509  and  _510
REMARK  211  A    between atoms: _509  and  _512
REMARK  212  A    between atoms: _512  and  _513
REMARK                            x       y       z     vdW  Elec       q    Type
REMARK                         _______ _______ _______ _____ _____    ______ ____
ROOT
ATOM      1  CA  CYS A   4      37.469 -26.695  31.529  0.00  0.00    +0.160 C 
ENDROOT
BRANCH   1   2
ATOM      2  N   CYS A   4      36.211 -26.515  30.780  0.00  0.00    -0.296 N 
ATOM      3  H   CYS A   4      35.371 -26.172  31.288  0.00  0.00    +0.150 HD
ATOM      4  C   HIS A   3      36.110 -26.778  29.467  0.00  0.00    +0.241 C 
ATOM      5  O   HIS A   3      37.072 -27.171  28.783  0.00  0.00    -0.273 OA
BRANCH   4   6
ATOM      6  CA  HIS A   3      34.734 -26.619  28.822  0.00  0.00    +0.155 C 
BRANCH   6   7
ATOM      7  N   HIS A   3      33.613 -26.608  29.795  0.00  0.00    -0.297 N 
ATOM      8  C   ALA A   2      33.318 -27.696  30.543  0.00  0.00    +0.241 C 
ATOM      9  O   ALA A   2      34.005 -28.719  30.518  0.00  0.00    -0.273 OA
ATOM     10  H   HIS A   3      33.042 -25.745  29.904  0.00  0.00    +0.150 HD
BRANCH   8  11
ATOM     11  CA  ALA A   2      32.088 -27.638  31.460  0.00  0.00    +0.149 C 
ATOM     12  CB  ALA A   2      30.828 -28.025  30.677  0.00  0.00    +0.031 C 
BRANCH  11  13
ATOM     13  N   ALA A   2      31.907 -26.326  32.081  0.00  0.00    -0.297 N 
ATOM     14  C   ALA A   1      32.817 -25.779  32.888  0.00  0.00    +0.238 C 
ATOM     15  O   ALA A   1      33.867 -26.341  33.180  0.00  0.00    -0.274 OA
ATOM     16  H   ALA A   2      31.033 -25.798  31.885  0.00  0.00    +0.150 HD
BRANCH  14  17
ATOM     17  CA  ALA A   1      32.519 -24.381  33.423  0.00  0.00    +0.145 C 
ATOM     18  CB  ALA A   1      33.255 -23.316  32.577  0.00  0.00    +0.028 C 
BRANCH  17  19
ATOM     19  N   ALA A   1      32.884 -24.249  34.833  0.00  0.00    -0.238 NA
ATOM     20  H   ALA A   1      33.862 -23.984  35.068  0.00  0.00    +0.142 HD
ENDBRANCH  17  19
ENDBRANCH  14  17
ENDBRANCH  11  13
ENDBRANCH   8  11
ENDBRANCH   6   7
BRANCH   6  21
ATOM     21  CB  HIS A   3      34.702 -25.415  27.870  0.00  0.00    +0.076 C 
BRANCH  21  22
ATOM     22  CG  HIS A   3      35.145 -24.133  28.498  0.00  0.00    +0.082 A 
ATOM     23  ND1 HIS A   3      34.240 -23.184  28.901  0.00  0.00    -0.227 NA
ATOM     24  CE1 HIS A   3      34.950 -22.186  29.393  0.00  0.00    +0.199 A 
ATOM     25  NE2 HIS A   3      36.248 -22.443  29.335  0.00  0.00    -0.221 NA
ATOM     26  CD2 HIS A   3      36.391 -23.692  28.777  0.00  0.00    +0.115 A 
ENDBRANCH  21  22
ENDBRANCH   6  21
ENDBRANCH   4   6
ENDBRANCH   1   2
BRANCH   1  27
ATOM     27  C   CYS A   4      37.966 -28.144  31.460  0.00  0.00    +0.242 C 
ATOM     28  O   CYS A   4      39.157 -28.387  31.625  0.00  0.00    -0.273 OA
ATOM     29  N   PHE A   5      37.033 -29.112  31.293  0.00  0.00    -0.297 N 
ATOM     30  H   PHE A   5      36.045 -28.831  31.131  0.00  0.00    +0.150 HD
BRANCH  29  31
ATOM     31  CA  PHE A   5      37.360 -30.533  31.331  0.00  0.00    +0.153 C 
BRANCH  31  32
ATOM     32  C   PHE A   5      37.598 -31.151  29.963  0.00  0.00    +0.241 C 
ATOM     33  O   PHE A   5      37.648 -32.383  29.865  0.00  0.00    -0.273 OA
ATOM     34  N   TYR A   6      37.815 -30.312  28.914  0.00  0.00    -0.298 N 
ATOM     35  H   TYR A   6      37.787 -29.283  29.062  0.00  0.00    +0.150 HD
BRANCH  34  36
ATOM     36  CA  TYR A   6      38.088 -30.849  27.575  0.00  0.00    +0.141 C 
BRANCH  36  37
ATOM     37  C   TYR A   6      39.345 -31.728  27.702  0.00  0.00    +0.227 C 
ATOM     38  O   TYR A   6      40.352 -31.267  28.245  0.00  0.00    -0.286 OA
ENDBRANCH  36  37
BRANCH  36  39
ATOM     39  CB  TYR A   6      38.302 -29.720  26.537  0.00  0.00    +0.054 C 
BRANCH  39  40
ATOM     40  CG  TYR A   6      38.685 -30.276  25.178  0.00  0.00    -0.020 A 
ATOM     41  CD2 TYR A   6      40.024 -30.409  24.808  0.00  0.00    -0.001 A 
ATOM     42  CE2 TYR A   6      40.382 -30.944  23.565  0.00  0.00    +0.036 A 
ATOM     43  CZ  TYR A   6      39.390 -31.381  22.696  0.00  0.00    +0.134 A 
ATOM     44  CE1 TYR A   6      38.059 -31.291  23.064  0.00  0.00    +0.036 A 
ATOM     45  CD1 TYR A   6      37.716 -30.757  24.305  0.00  0.00    -0.001 A 
BRANCH  43  46
ATOM     46  OH  TYR A   6      39.696 -31.928  21.473  0.00  0.00    -0.506 OA
ATOM     47  HH  TYR A   6      38.860 -32.175  21.005  0.00  0.00    +0.292 HD
ENDBRANCH  43  46
ENDBRANCH  39  40
ENDBRANCH  36  39
ENDBRANCH  34  36
ENDBRANCH  31  32
BRANCH  31  48
ATOM     48  CB  PHE A   5      36.299 -31.297  32.148  0.00  0.00    +0.055 C 
BRANCH  48  49
ATOM     49  CG  PHE A   5      36.140 -30.592  33.482  0.00  0.00    -0.020 A 
ATOM     50  CD2 PHE A   5      37.115 -30.708  34.466  0.00  0.00    -0.004 A 
ATOM     51  CE2 PHE A   5      37.036 -29.968  35.649  0.00  0.00    -0.000 A 
ATOM     52  CZ  PHE A   5      35.977 -29.107  35.849  0.00  0.00    -0.000 A 
ATOM     53  CE1 PHE A   5      34.995 -28.976  34.883  0.00  0.00    -0.000 A 
ATOM     54  CD1 PHE A   5      35.072 -29.727  33.708  0.00  0.00    -0.004 A 
ENDBRANCH  48  49
ENDBRANCH  31  48
ENDBRANCH  29  31
ENDBRANCH   1  27
BRANCH   1  55
ATOM     55  CB  CYS A   4      37.249 -26.290  32.984  0.00  0.00    +0.098 C 
BRANCH  55  56
ATOM     56  SG  CYS A   4      36.972 -24.523  33.213  0.00  0.00    -0.080 S 
BRANCH  56  57
ATOM     57  SG  CYS A   4      38.880 -23.865  33.404  0.00  0.00    -0.080 S 
BRANCH  57  58
ATOM     58  CB  CYS A   4      39.039 -23.762  35.212  0.00  0.00    +0.098 C 
BRANCH  58  59
ATOM     59  CA  CYS A   4      40.192 -22.879  35.696  0.00  0.00    +0.160 C 
BRANCH  59  61
ATOM     60  C   HIS A   3      42.170 -23.949  34.708  0.00  0.00    +0.241 C 
ATOM     61  N   CYS A   4      41.393 -23.694  35.771  0.00  0.00    -0.296 N 
ATOM     62  H   CYS A   4      41.662 -24.098  36.691  0.00  0.00    +0.150 HD
ATOM     63  O   HIS A   3      41.959 -23.445  33.605  0.00  0.00    -0.273 OA
BRANCH  60  64
ATOM     64  CA  HIS A   3      43.333 -24.945  34.920  0.00  0.00    +0.149 C 
BRANCH  64  66
ATOM     65  C   ALA A   2      45.333 -24.018  35.991  0.00  0.00    +0.241 C 
ATOM     66  N   HIS A   3      44.137 -24.595  36.087  0.00  0.00    -0.297 N 
ATOM     67  H   HIS A   3      43.760 -24.805  37.033  0.00  0.00    +0.150 HD
ATOM     68  O   ALA A   2      45.883 -23.806  34.911  0.00  0.00    -0.273 OA
BRANCH  65  69
ATOM     69  CA  ALA A   2      46.056 -23.642  37.299  0.00  0.00    +0.155 C 
BRANCH  69  71
ATOM     70  C   ALA A   1      47.735 -25.448  37.074  0.00  0.00    +0.238 C 
ATOM     71  N   ALA A   2      47.419 -24.153  37.176  0.00  0.00    -0.297 N 
ATOM     72  H   ALA A   2      48.196 -23.462  37.167  0.00  0.00    +0.150 HD
ATOM     73  O   ALA A   1      46.905 -26.361  37.140  0.00  0.00    -0.274 OA
BRANCH  70  74
ATOM     74  CA  ALA A   1      49.211 -25.776  36.865  0.00  0.00    +0.145 C 
BRANCH  74  75
ATOM     75  N   ALA A   1      49.421 -27.168  37.243  0.00  0.00    -0.238 NA
ATOM     76  H   ALA A   1      48.603 -27.810  37.259  0.00  0.00    +0.142 HD
ENDBRANCH  74  75
BRANCH  74  77
ATOM     77  CB  ALA A   1      49.633 -25.552  35.387  0.00  0.00    +0.030 C 
BRANCH  77  78
ATOM     78  CG  ALA A   1      48.739 -26.298  34.388  0.00  0.00    +0.045 C 
BRANCH  78  79
ATOM     79  CD  ALA A   1      49.152 -26.143  32.938  0.00  0.00    +0.174 C 
BRANCH  79  80
ATOM     80  NE  ALA A   1      48.366 -27.036  32.077  0.00  0.00    -0.265 N 
ATOM     81  HE  ALA A   1      48.777 -27.963  31.847  0.00  0.00    +0.259 HD
ATOM     82  CZ  ALA A   1      47.166 -26.752  31.566  0.00  0.00    +0.342 C 
ATOM     83  NH2 ALA A   1      46.591 -25.577  31.807  0.00  0.00    -0.292 N 
ATOM     84 HH21 ALA A   1      47.077 -24.872  32.397  0.00  0.00    +0.255 HD
ATOM     85 HH22 ALA A   1      45.656 -25.364  31.405  0.00  0.00    +0.255 HD
ATOM     86  NH1 ALA A   1      46.531 -27.642  30.813  0.00  0.00    -0.292 N 
ATOM     87 HH11 ALA A   1      46.968 -28.565  30.619  0.00  0.00    +0.255 HD
ATOM     88 HH12 ALA A   1      45.596 -27.416  30.417  0.00  0.00    +0.255 HD
ENDBRANCH  79  80
ENDBRANCH  78  79
ENDBRANCH  77  78
ENDBRANCH  74  77
ENDBRANCH  70  74
ENDBRANCH  69  71
BRANCH  69  89
ATOM     89  CB  ALA A   2      46.102 -22.110  37.453  0.00  0.00    +0.076 C 
BRANCH  89  90
ATOM     90  CG  ALA A   2      44.783 -21.424  37.213  0.00  0.00    +0.082 A 
ATOM     91  ND1 ALA A   2      43.860 -21.262  38.232  0.00  0.00    -0.227 NA
ATOM     92  CE1 ALA A   2      42.836 -20.622  37.692  0.00  0.00    +0.199 A 
ATOM     93  NE2 ALA A   2      43.058 -20.339  36.400  0.00  0.00    -0.221 NA
ATOM     94  CD2 ALA A   2      44.302 -20.842  36.085  0.00  0.00    +0.115 A 
ENDBRANCH  89  90
ENDBRANCH  69  89
ENDBRANCH  65  69
ENDBRANCH  64  66
BRANCH  64  95
ATOM     95  CB  HIS A   3      42.781 -26.384  35.092  0.00  0.00    +0.029 C 
BRANCH  95  96
ATOM     96  CG  HIS A   3      41.876 -26.946  33.973  0.00  0.00    +0.002 C 
ATOM     97  CD2 HIS A   3      41.235 -28.271  34.407  0.00  0.00    +0.000 C 
ATOM     98  CD1 HIS A   3      42.654 -27.109  32.656  0.00  0.00    +0.000 C 
ENDBRANCH  95  96
ENDBRANCH  64  95
ENDBRANCH  60  64
ENDBRANCH  59  61
BRANCH  59  99
ATOM     99  C   CYS A   4      39.873 -22.327  37.061  0.00  0.00    +0.242 C 
ATOM    100  O   CYS A   4      40.401 -22.803  38.065  0.00  0.00    -0.273 OA
ATOM    101  N   PHE A   5      38.919 -21.416  37.093  0.00  0.00    -0.296 N 
ATOM    102  H   PHE A   5      38.561 -21.025  36.198  0.00  0.00    +0.150 HD
BRANCH 101 103
ATOM    103  CA  PHE A   5      38.357 -20.946  38.348  0.00  0.00    +0.163 C 
BRANCH 103 104
ATOM    104  C   PHE A   5      37.132 -21.790  38.661  0.00  0.00    +0.229 C 
ATOM    105  O   PHE A   5      36.731 -22.646  37.869  0.00  0.00    -0.286 OA
ENDBRANCH 103 104
ENDBRANCH 101 103
ENDBRANCH  59  99
ENDBRANCH  58  59
ENDBRANCH  57  58
ENDBRANCH  56  57
ENDBRANCH  55  56
ENDBRANCH   1  55
TORSDOF 42
REMARK  Name = ../refined-set-2016/5e2o/5e2o_pocket.pdb
REMARK  212 active torsions:
REMARK  status: ('A' for Active; 'I' for Inactive)
REMARK    1  A    between atoms: _1  and  _5
REMARK    2  A    between atoms: _5  and  _6
REMARK    3  A    between atoms: _5  and  _8
REMARK    4  A    between atoms: _8  and  _9
REMARK    5  A    between atoms: _12  and  _14
REMARK    6  A    between atoms: _14  and  _15
REMARK    7  A    between atoms: _14  and  _17
REMARK    8  A    between atoms: _20  and  _22
REMARK    9  A    between atoms: _22  and  _23
REMARK   10  A    between atoms: _22  and  _25
REMARK   11  A    between atoms: _25  and  _26
REMARK   12  A    between atoms: _29  and  _31
REMARK   13  A    between atoms: _31  and  _32
REMARK   14  A    between atoms: _31  and  _34
REMARK   15  A    between atoms: _34  and  _35
REMARK   16  A    between atoms: _35  and  _36
REMARK   17  A    between atoms: _36  and  _37
REMARK   18  A    between atoms: _46  and  _48
REMARK   19  A    between atoms: _48  and  _49
REMARK   20  A    between atoms: _48  and  _51
REMARK   21  A    between atoms: _51  and  _52
REMARK   22  A    between atoms: _57  and  _59
REMARK   23  A    between atoms: _59  and  _60
REMARK   24  A    between atoms: _59  and  _62
REMARK   25  A    between atoms: _62  and  _63
REMARK   26  A    between atoms: _66  and  _68
REMARK   27  A    between atoms: _68  and  _69
REMARK   28  A    between atoms: _68  and  _71
REMARK   29  A    between atoms: _71  and  _72
REMARK   30  A    between atoms: _72  and  _107
REMARK   31  A    between atoms: _73  and  _75
REMARK   32  A    between atoms: _75  and  _76
REMARK   33  A    between atoms: _78  and  _80
REMARK   34  A    between atoms: _80  and  _81
REMARK   35  A    between atoms: _84  and  _86
REMARK   36  A    between atoms: _86  and  _87
REMARK   37  A    between atoms: _90  and  _92
REMARK   38  A    between atoms: _92  and  _93
REMARK   39  A    between atoms: _92  and  _95
REMARK   40  A    between atoms: _95  and  _96
REMARK   41  A    between atoms: _101  and  _103
REMARK   42  A    between atoms: _103  and  _104
REMARK   43  A    between atoms: _103  and  _106
REMARK   44  A    between atoms: _106  and  _107
REMARK   45  A    between atoms: _108  and  _110
REMARK   46  A    between atoms: _110  and  _111
REMARK   47  A    between atoms: _110  and  _113
REMARK   48  A    between atoms: _113  and  _114
REMARK   49  A    between atoms: _120  and  _122
REMARK   50  A    between atoms: _122  and  _123
REMARK   51  A    between atoms: _122  and  _125
REMARK   52  A    between atoms: _125  and  _126
REMARK   53  A    between atoms: _131  and  _132
REMARK   54  A    between atoms: _134  and  _136
REMARK   55  A    between atoms: _136  and  _137
REMARK   56  A    between atoms: _136  and  _139
REMARK   57  A    between atoms: _142  and  _144
REMARK   58  A    between atoms: _144  and  _145
REMARK   59  A    between atoms: _148  and  _150
REMARK   60  A    between atoms: _150  and  _151
REMARK   61  A    between atoms: _150  and  _153
REMARK   62  A    between atoms: _153  and  _154
REMARK   63  A    between atoms: _157  and  _159
REMARK   64  A    between atoms: _159  and  _160
REMARK   65  A    between atoms: _159  and  _162
REMARK   66  A    between atoms: _165  and  _167
REMARK   67  A    between atoms: _167  and  _168
REMARK   68  A    between atoms: _167  and  _170
REMARK   69  A    between atoms: _170  and  _171
REMARK   70  A    between atoms: _181  and  _183
REMARK   71  A    between atoms: _183  and  _184
REMARK   72  A    between atoms: _186  and  _188
REMARK   73  A    between atoms: _188  and  _189
REMARK   74  A    between atoms: _188  and  _191
REMARK   75  A    between atoms: _191  and  _192
REMARK   76  A    between atoms: _197  and  _198
REMARK   77  A    between atoms: _200  and  _202
REMARK   78  A    between atoms: _202  and  _203
REMARK   79  A    between atoms: _202  and  _205
REMARK   80  A    between atoms: _205  and  _206
REMARK   81  A    between atoms: _206  and  _207
REMARK   82  A    between atoms: _207  and  _208
REMARK   83  A    between atoms: _208  and  _209
REMARK   84  A    between atoms: _213  and  _215
REMARK   85  A    between atoms: _215  and  _216
REMARK   86  A    between atoms: _215  and  _218
REMARK   87  A    between atoms: _218  and  _219
REMARK   88  A    between atoms: _222  and  _224
REMARK   89  A    between atoms: _224  and  _225
REMARK   90  A    between atoms: _224  and  _227
REMARK   91  A    between atoms: _227  and  _228
REMARK   92  A    between atoms: _231  and  _233
REMARK   93  A    between atoms: _233  and  _234
REMARK   94  A    between atoms: _233  and  _236
REMARK   95  A    between atoms: _236  and  _237
REMARK   96  A    between atoms: _237  and  _238
REMARK   97  A    between atoms: _238  and  _239
REMARK   98  A    between atoms: _239  and  _240
REMARK   99  A    between atoms: _244  and  _246
REMARK  100  A    between atoms: _246  and  _247
REMARK  101  A    between atoms: _246  and  _249
REMARK  102  A    between atoms: _249  and  _250
REMARK  103  A    between atoms: _253  and  _255
REMARK  104  A    between atoms: _255  and  _256
REMARK  105  A    between atoms: _255  and  _258
REMARK  106  A    between atoms: _258  and  _259
REMARK  107  A    between atoms: _264  and  _265
REMARK  108  A    between atoms: _267  and  _269
REMARK  109  A    between atoms: _269  and  _270
REMARK  110  A    between atoms: _269  and  _272
REMARK  111  A    between atoms: _272  and  _273
REMARK  112  A    between atoms: _276  and  _278
REMARK  113  A    between atoms: _278  and  _279
REMARK  114  A    between atoms: _278  and  _281
REMARK  115  A    between atoms: _283  and  _285
REMARK  116  A    between atoms: _285  and  _286
REMARK  117  A    between atoms: _289  and  _291
REMARK  118  A    between atoms: _291  and  _292
REMARK  119  A    between atoms: _291  and  _294
REMARK  120  A    between atoms: _294  and  _295
REMARK  121  A    between atoms: _295  and  _296
REMARK  122  A    between atoms: _296  and  _297
REMARK  123  A    between atoms: _297  and  _298
REMARK  124  A    between atoms: _302  and  _304
REMARK  125  A    between atoms: _304  and  _305
REMARK  126  A    between atoms: _304  and  _307
REMARK  127  A    between atoms: _307  and  _308
REMARK  128  A    between atoms: _311  and  _313
REMARK  129  A    between atoms: _313  and  _314
REMARK  130  A    between atoms: _317  and  _319
REMARK  131  A    between atoms: _319  and  _320
REMARK  132  A    between atoms: _319  and  _322
REMARK  133  A    between atoms: _322  and  _323
REMARK  134  A    between atoms: _323  and  _437
REMARK  135  A    between atoms: _324  and  _326
REMARK  136  A    between atoms: _326  and  _327
REMARK  137  A    between atoms: _326  and  _329
REMARK  138  A    between atoms: _329  and  _330
REMARK  139  A    between atoms: _330  and  _331
REMARK  140  A    between atoms: _331  and  _332
REMARK  141  A    between atoms: _332  and  _333
REMARK  142  A    between atoms: _337  and  _339
REMARK  143  A    between atoms: _339  and  _340
REMARK  144  A    between atoms: _342  and  _344
REMARK  145  A    between atoms: _344  and  _345
REMARK  146  A    between atoms: _344  and  _347
REMARK  147  A    between atoms: _347  and  _348
REMARK  148  A    between atoms: _351  and  _353
REMARK  149  A    between atoms: _353  and  _354
REMARK  150  A    between atoms: _353  and  _356
REMARK  151  A    between atoms: _356  and  _357
REMARK  152  A    between atoms: _359  and  _361
REMARK  153  A    between atoms: _361  and  _362
REMARK  154  A    between atoms: _364  and  _366
REMARK  155  A    between atoms: _366  and  _367
REMARK  156  A    between atoms: _369  and  _371
REMARK  157  A    between atoms: _371  and  _372
REMARK  158  A    between atoms: _371  and  _374
REMARK  159  A    between atoms: _374  and  _375
REMARK  160  A    between atoms: _378  and  _380
REMARK  161  A    between atoms: _380  and  _381
REMARK  162  A    between atoms: _380  and  _383
REMARK  163  A    between atoms: _383  and  _384
REMARK  164  A    between atoms: _387  and  _389
REMARK  165  A    between atoms: _389  and  _390
REMARK  166  A    between atoms: _389  and  _392
REMARK  167  A    between atoms: _392  and  _393
REMARK  168  A    between atoms: _395  and  _397
REMARK  169  A    between atoms: _397  and  _398
REMARK  170  A    between atoms: _397  and  _400
REMARK  171  A    between atoms: _400  and  _401
REMARK  172  A    between atoms: _411  and  _413
REMARK  173  A    between atoms: _413  and  _414
REMARK  174  A    between atoms: _416  and  _418
REMARK  175  A    between atoms: _418  and  _419
REMARK  176  A    between atoms: _418  and  _421
REMARK  177  A    between atoms: _421  and  _422
REMARK  178  A    between atoms: _422  and  _423
REMARK  179  A    between atoms: _426  and  _428
REMARK  180  A    between atoms: _428  and  _429
REMARK  181  A    between atoms: _431  and  _433
REMARK  182  A    between atoms: _433  and  _434
REMARK  183  A    between atoms: _433  and  _436
REMARK  184  A    between atoms: _436  and  _437
REMARK  185  A    between atoms: _438  and  _440
REMARK  186  A    between atoms: _440  and  _441
REMARK  187  A    between atoms: _444  and  _446
REMARK  188  A    between atoms: _446  and  _447
REMARK  189  A    between atoms: _446  and  _449
REMARK  190  A    between atoms: _449  and  _450
REMARK  191  A    between atoms: _450  and  _451
REMARK  192  A    between atoms: _456  and  _458
REMARK  193  A    between atoms: _458  and  _459
REMARK  194  A    between atoms: _458  and  _461
REMARK  195  A    between atoms: _461  and  _462
REMARK  196  A    between atoms: _462  and  _463
REMARK  197  A    between atoms: _463  and  _464
REMARK  198  A    between atoms: _474  and  _475
REMARK  199  A    between atoms: _480  and  _482
REMARK  200  A    between atoms: _482  and  _483
REMARK  201  A    between atoms: _485  and  _487
REMARK  202  A    between atoms: _487  and  _488
REMARK  203  A    between atoms: _487  and  _490
REMARK  204  A    between atoms: _493  and  _495
REMARK  205  A    between atoms: _495  and  _496
REMARK  206  A    between atoms: _495  and  _498
REMARK  207  A    between atoms: _498  and  _499
REMARK  208  A    between atoms: _504  and  _505
REMARK  209  A    between atoms: _507  and  _509
REMARK  210  A    between atoms: _509  and  _510
REMARK  211  A    between atoms: _509  and  _512
REMARK  212  A    between atoms: _512  and  _513
REMARK                            x       y       z     vdW  Elec       q    Type
REMARK                         _______ _______ _______ _____ _____    ______ ____
ROOT
ATOM      1  CA  VAL A   1      40.288 -34.415  31.284  0.00  0.00    +0.133 C 
ENDROOT
BRANCH   1   2
ATOM      2  CB  VAL A   1      39.798 -33.402  32.378  0.00  0.00    +0.023 C 
ATOM      3  CG2 VAL A   1      39.707 -34.058  33.758  0.00  0.00    +0.002 C 
ATOM      4  CG1 VAL A   1      40.693 -32.163  32.438  0.00  0.00    +0.002 C 
ENDBRANCH   1   2
BRANCH   1   5
ATOM      5  N   VAL A   1      40.008 -33.973  29.898  0.00  0.00    -0.239 NA
ATOM      6  H   VAL A   1      39.199 -33.342  29.730  0.00  0.00    +0.142 HD
ENDBRANCH   1   5
BRANCH   1   7
ATOM      7  C   VAL A   1      39.584 -35.785  31.358  0.00  0.00    +0.224 C 
ATOM      8  O   VAL A   1      38.363 -35.866  31.255  0.00  0.00    -0.287 OA
ENDBRANCH   1   7
TORSDOF 3
REMARK  Name = ../refined-set-2016/5e2o/5e2o_pocket.pdb
REMARK  212 active torsions:
REMARK  status: ('A' for Active; 'I' for Inactive)
REMARK    1  A    between atoms: _1  and  _5
REMARK    2  A    between atoms: _5  and  _6
REMARK    3  A    between atoms: _5  and  _8
REMARK    4  A    between atoms: _8  and  _9
REMARK    5  A    between atoms: _12  and  _14
REMARK    6  A    between atoms: _14  and  _15
REMARK    7  A    between atoms: _14  and  _17
REMARK    8  A    between atoms: _20  and  _22
REMARK    9  A    between atoms: _22  and  _23
REMARK   10  A    between atoms: _22  and  _25
REMARK   11  A    between atoms: _25  and  _26
REMARK   12  A    between atoms: _29  and  _31
REMARK   13  A    between atoms: _31  and  _32
REMARK   14  A    between atoms: _31  and  _34
REMARK   15  A    between atoms: _34  and  _35
REMARK   16  A    between atoms: _35  and  _36
REMARK   17  A    between atoms: _36  and  _37
REMARK   18  A    between atoms: _46  and  _48
REMARK   19  A    between atoms: _48  and  _49
REMARK   20  A    between atoms: _48  and  _51
REMARK   21  A    between atoms: _51  and  _52
REMARK   22  A    between atoms: _57  and  _59
REMARK   23  A    between atoms: _59  and  _60
REMARK   24  A    between atoms: _59  and  _62
REMARK   25  A    between atoms: _62  and  _63
REMARK   26  A    between atoms: _66  and  _68
REMARK   27  A    between atoms: _68  and  _69
REMARK   28  A    between atoms: _68  and  _71
REMARK   29  A    between atoms: _71  and  _72
REMARK   30  A    between atoms: _72  and  _107
REMARK   31  A    between atoms: _73  and  _75
REMARK   32  A    between atoms: _75  and  _76
REMARK   33  A    between atoms: _78  and  _80
REMARK   34  A    between atoms: _80  and  _81
REMARK   35  A    between atoms: _84  and  _86
REMARK   36  A    between atoms: _86  and  _87
REMARK   37  A    between atoms: _90  and  _92
REMARK   38  A    between atoms: _92  and  _93
REMARK   39  A    between atoms: _92  and  _95
REMARK   40  A    between atoms: _95  and  _96
REMARK   41  A    between atoms: _101  and  _103
REMARK   42  A    between atoms: _103  and  _104
REMARK   43  A    between atoms: _103  and  _106
REMARK   44  A    between atoms: _106  and  _107
REMARK   45  A    between atoms: _108  and  _110
REMARK   46  A    between atoms: _110  and  _111
REMARK   47  A    between atoms: _110  and  _113
REMARK   48  A    between atoms: _113  and  _114
REMARK   49  A    between atoms: _120  and  _122
REMARK   50  A    between atoms: _122  and  _123
REMARK   51  A    between atoms: _122  and  _125
REMARK   52  A    between atoms: _125  and  _126
REMARK   53  A    between atoms: _131  and  _132
REMARK   54  A    between atoms: _134  and  _136
REMARK   55  A    between atoms: _136  and  _137
REMARK   56  A    between atoms: _136  and  _139
REMARK   57  A    between atoms: _142  and  _144
REMARK   58  A    between atoms: _144  and  _145
REMARK   59  A    between atoms: _148  and  _150
REMARK   60  A    between atoms: _150  and  _151
REMARK   61  A    between atoms: _150  and  _153
REMARK   62  A    between atoms: _153  and  _154
REMARK   63  A    between atoms: _157  and  _159
REMARK   64  A    between atoms: _159  and  _160
REMARK   65  A    between atoms: _159  and  _162
REMARK   66  A    between atoms: _165  and  _167
REMARK   67  A    between atoms: _167  and  _168
REMARK   68  A    between atoms: _167  and  _170
REMARK   69  A    between atoms: _170  and  _171
REMARK   70  A    between atoms: _181  and  _183
REMARK   71  A    between atoms: _183  and  _184
REMARK   72  A    between atoms: _186  and  _188
REMARK   73  A    between atoms: _188  and  _189
REMARK   74  A    between atoms: _188  and  _191
REMARK   75  A    between atoms: _191  and  _192
REMARK   76  A    between atoms: _197  and  _198
REMARK   77  A    between atoms: _200  and  _202
REMARK   78  A    between atoms: _202  and  _203
REMARK   79  A    between atoms: _202  and  _205
REMARK   80  A    between atoms: _205  and  _206
REMARK   81  A    between atoms: _206  and  _207
REMARK   82  A    between atoms: _207  and  _208
REMARK   83  A    between atoms: _208  and  _209
REMARK   84  A    between atoms: _213  and  _215
REMARK   85  A    between atoms: _215  and  _216
REMARK   86  A    between atoms: _215  and  _218
REMARK   87  A    between atoms: _218  and  _219
REMARK   88  A    between atoms: _222  and  _224
REMARK   89  A    between atoms: _224  and  _225
REMARK   90  A    between atoms: _224  and  _227
REMARK   91  A    between atoms: _227  and  _228
REMARK   92  A    between atoms: _231  and  _233
REMARK   93  A    between atoms: _233  and  _234
REMARK   94  A    between atoms: _233  and  _236
REMARK   95  A    between atoms: _236  and  _237
REMARK   96  A    between atoms: _237  and  _238
REMARK   97  A    between atoms: _238  and  _239
REMARK   98  A    between atoms: _239  and  _240
REMARK   99  A    between atoms: _244  and  _246
REMARK  100  A    between atoms: _246  and  _247
REMARK  101  A    between atoms: _246  and  _249
REMARK  102  A    between atoms: _249  and  _250
REMARK  103  A    between atoms: _253  and  _255
REMARK  104  A    between atoms: _255  and  _256
REMARK  105  A    between atoms: _255  and  _258
REMARK  106  A    between atoms: _258  and  _259
REMARK  107  A    between atoms: _264  and  _265
REMARK  108  A    between atoms: _267  and  _269
REMARK  109  A    between atoms: _269  and  _270
REMARK  110  A    between atoms: _269  and  _272
REMARK  111  A    between atoms: _272  and  _273
REMARK  112  A    between atoms: _276  and  _278
REMARK  113  A    between atoms: _278  and  _279
REMARK  114  A    between atoms: _278  and  _281
REMARK  115  A    between atoms: _283  and  _285
REMARK  116  A    between atoms: _285  and  _286
REMARK  117  A    between atoms: _289  and  _291
REMARK  118  A    between atoms: _291  and  _292
REMARK  119  A    between atoms: _291  and  _294
REMARK  120  A    between atoms: _294  and  _295
REMARK  121  A    between atoms: _295  and  _296
REMARK  122  A    between atoms: _296  and  _297
REMARK  123  A    between atoms: _297  and  _298
REMARK  124  A    between atoms: _302  and  _304
REMARK  125  A    between atoms: _304  and  _305
REMARK  126  A    between atoms: _304  and  _307
REMARK  127  A    between atoms: _307  and  _308
REMARK  128  A    between atoms: _311  and  _313
REMARK  129  A    between atoms: _313  and  _314
REMARK  130  A    between atoms: _317  and  _319
REMARK  131  A    between atoms: _319  and  _320
REMARK  132  A    between atoms: _319  and  _322
REMARK  133  A    between atoms: _322  and  _323
REMARK  134  A    between atoms: _323  and  _437
REMARK  135  A    between atoms: _324  and  _326
REMARK  136  A    between atoms: _326  and  _327
REMARK  137  A    between atoms: _326  and  _329
REMARK  138  A    between atoms: _329  and  _330
REMARK  139  A    between atoms: _330  and  _331
REMARK  140  A    between atoms: _331  and  _332
REMARK  141  A    between atoms: _332  and  _333
REMARK  142  A    between atoms: _337  and  _339
REMARK  143  A    between atoms: _339  and  _340
REMARK  144  A    between atoms: _342  and  _344
REMARK  145  A    between atoms: _344  and  _345
REMARK  146  A    between atoms: _344  and  _347
REMARK  147  A    between atoms: _347  and  _348
REMARK  148  A    between atoms: _351  and  _353
REMARK  149  A    between atoms: _353  and  _354
REMARK  150  A    between atoms: _353  and  _356
REMARK  151  A    between atoms: _356  and  _357
REMARK  152  A    between atoms: _359  and  _361
REMARK  153  A    between atoms: _361  and  _362
REMARK  154  A    between atoms: _364  and  _366
REMARK  155  A    between atoms: _366  and  _367
REMARK  156  A    between atoms: _369  and  _371
REMARK  157  A    between atoms: _371  and  _372
REMARK  158  A    between atoms: _371  and  _374
REMARK  159  A    between atoms: _374  and  _375
REMARK  160  A    between atoms: _378  and  _380
REMARK  161  A    between atoms: _380  and  _381
REMARK  162  A    between atoms: _380  and  _383
REMARK  163  A    between atoms: _383  and  _384
REMARK  164  A    between atoms: _387  and  _389
REMARK  165  A    between atoms: _389  and  _390
REMARK  166  A    between atoms: _389  and  _392
REMARK  167  A    between atoms: _392  and  _393
REMARK  168  A    between atoms: _395  and  _397
REMARK  169  A    between atoms: _397  and  _398
REMARK  170  A    between atoms: _397  and  _400
REMARK  171  A    between atoms: _400  and  _401
REMARK  172  A    between atoms: _411  and  _413
REMARK  173  A    between atoms: _413  and  _414
REMARK  174  A    between atoms: _416  and  _418
REMARK  175  A    between atoms: _418  and  _419
REMARK  176  A    between atoms: _418  and  _421
REMARK  177  A    between atoms: _421  and  _422
REMARK  178  A    between atoms: _422  and  _423
REMARK  179  A    between atoms: _426  and  _428
REMARK  180  A    between atoms: _428  and  _429
REMARK  181  A    between atoms: _431  and  _433
REMARK  182  A    between atoms: _433  and  _434
REMARK  183  A    between atoms: _433  and  _436
REMARK  184  A    between atoms: _436  and  _437
REMARK  185  A    between atoms: _438  and  _440
REMARK  186  A    between atoms: _440  and  _441
REMARK  187  A    between atoms: _444  and  _446
REMARK  188  A    between atoms: _446  and  _447
REMARK  189  A    between atoms: _446  and  _449
REMARK  190  A    between atoms: _449  and  _450
REMARK  191  A    between atoms: _450  and  _451
REMARK  192  A    between atoms: _456  and  _458
REMARK  193  A    between atoms: _458  and  _459
REMARK  194  A    between atoms: _458  and  _461
REMARK  195  A    between atoms: _461  and  _462
REMARK  196  A    between atoms: _462  and  _463
REMARK  197  A    between atoms: _463  and  _464
REMARK  198  A    between atoms: _474  and  _475
REMARK  199  A    between atoms: _480  and  _482
REMARK  200  A    between atoms: _482  and  _483
REMARK  201  A    between atoms: _485  and  _487
REMARK  202  A    between atoms: _487  and  _488
REMARK  203  A    between atoms: _487  and  _490
REMARK  204  A    between atoms: _493  and  _495
REMARK  205  A    between atoms: _495  and  _496
REMARK  206  A    between atoms: _495  and  _498
REMARK  207  A    between atoms: _498  and  _499
REMARK  208  A    between atoms: _504  and  _505
REMARK  209  A    between atoms: _507  and  _509
REMARK  210  A    between atoms: _509  and  _510
REMARK  211  A    between atoms: _509  and  _512
REMARK  212  A    between atoms: _512  and  _513
REMARK                            x       y       z     vdW  Elec       q    Type
REMARK                         _______ _______ _______ _____ _____    ______ ____
ROOT
ATOM      1  CA  ALA A   1      30.984 -23.024  25.390  0.00  0.00    +0.133 C 
ATOM      2  CB  ALA A   1      32.299 -22.292  25.702  0.00  0.00    +0.027 C 
ENDROOT
BRANCH   1   3
ATOM      3  N   ALA A   1      31.257 -24.286  24.679  0.00  0.00    -0.239 NA
ATOM      4  H   ALA A   1      32.250 -24.568  24.553  0.00  0.00    +0.142 HD
ENDBRANCH   1   3
BRANCH   1   5
ATOM      5  C   ALA A   1      30.071 -22.133  24.577  0.00  0.00    +0.224 C 
ATOM      6  O   ALA A   1      29.065 -21.649  25.103  0.00  0.00    -0.287 OA
ENDBRANCH   1   5
TORSDOF 2
REMARK  Name = ../refined-set-2016/5e2o/5e2o_pocket.pdb
REMARK  212 active torsions:
REMARK  status: ('A' for Active; 'I' for Inactive)
REMARK    1  A    between atoms: _1  and  _5
REMARK    2  A    between atoms: _5  and  _6
REMARK    3  A    between atoms: _5  and  _8
REMARK    4  A    between atoms: _8  and  _9
REMARK    5  A    between atoms: _12  and  _14
REMARK    6  A    between atoms: _14  and  _15
REMARK    7  A    between atoms: _14  and  _17
REMARK    8  A    between atoms: _20  and  _22
REMARK    9  A    between atoms: _22  and  _23
REMARK   10  A    between atoms: _22  and  _25
REMARK   11  A    between atoms: _25  and  _26
REMARK   12  A    between atoms: _29  and  _31
REMARK   13  A    between atoms: _31  and  _32
REMARK   14  A    between atoms: _31  and  _34
REMARK   15  A    between atoms: _34  and  _35
REMARK   16  A    between atoms: _35  and  _36
REMARK   17  A    between atoms: _36  and  _37
REMARK   18  A    between atoms: _46  and  _48
REMARK   19  A    between atoms: _48  and  _49
REMARK   20  A    between atoms: _48  and  _51
REMARK   21  A    between atoms: _51  and  _52
REMARK   22  A    between atoms: _57  and  _59
REMARK   23  A    between atoms: _59  and  _60
REMARK   24  A    between atoms: _59  and  _62
REMARK   25  A    between atoms: _62  and  _63
REMARK   26  A    between atoms: _66  and  _68
REMARK   27  A    between atoms: _68  and  _69
REMARK   28  A    between atoms: _68  and  _71
REMARK   29  A    between atoms: _71  and  _72
REMARK   30  A    between atoms: _72  and  _107
REMARK   31  A    between atoms: _73  and  _75
REMARK   32  A    between atoms: _75  and  _76
REMARK   33  A    between atoms: _78  and  _80
REMARK   34  A    between atoms: _80  and  _81
REMARK   35  A    between atoms: _84  and  _86
REMARK   36  A    between atoms: _86  and  _87
REMARK   37  A    between atoms: _90  and  _92
REMARK   38  A    between atoms: _92  and  _93
REMARK   39  A    between atoms: _92  and  _95
REMARK   40  A    between atoms: _95  and  _96
REMARK   41  A    between atoms: _101  and  _103
REMARK   42  A    between atoms: _103  and  _104
REMARK   43  A    between atoms: _103  and  _106
REMARK   44  A    between atoms: _106  and  _107
REMARK   45  A    between atoms: _108  and  _110
REMARK   46  A    between atoms: _110  and  _111
REMARK   47  A    between atoms: _110  and  _113
REMARK   48  A    between atoms: _113  and  _114
REMARK   49  A    between atoms: _120  and  _122
REMARK   50  A    between atoms: _122  and  _123
REMARK   51  A    between atoms: _122  and  _125
REMARK   52  A    between atoms: _125  and  _126
REMARK   53  A    between atoms: _131  and  _132
REMARK   54  A    between atoms: _134  and  _136
REMARK   55  A    between atoms: _136  and  _137
REMARK   56  A    between atoms: _136  and  _139
REMARK   57  A    between atoms: _142  and  _144
REMARK   58  A    between atoms: _144  and  _145
REMARK   59  A    between atoms: _148  and  _150
REMARK   60  A    between atoms: _150  and  _151
REMARK   61  A    between atoms: _150  and  _153
REMARK   62  A    between atoms: _153  and  _154
REMARK   63  A    between atoms: _157  and  _159
REMARK   64  A    between atoms: _159  and  _160
REMARK   65  A    between atoms: _159  and  _162
REMARK   66  A    between atoms: _165  and  _167
REMARK   67  A    between atoms: _167  and  _168
REMARK   68  A    between atoms: _167  and  _170
REMARK   69  A    between atoms: _170  and  _171
REMARK   70  A    between atoms: _181  and  _183
REMARK   71  A    between atoms: _183  and  _184
REMARK   72  A    between atoms: _186  and  _188
REMARK   73  A    between atoms: _188  and  _189
REMARK   74  A    between atoms: _188  and  _191
REMARK   75  A    between atoms: _191  and  _192
REMARK   76  A    between atoms: _197  and  _198
REMARK   77  A    between atoms: _200  and  _202
REMARK   78  A    between atoms: _202  and  _203
REMARK   79  A    between atoms: _202  and  _205
REMARK   80  A    between atoms: _205  and  _206
REMARK   81  A    between atoms: _206  and  _207
REMARK   82  A    between atoms: _207  and  _208
REMARK   83  A    between atoms: _208  and  _209
REMARK   84  A    between atoms: _213  and  _215
REMARK   85  A    between atoms: _215  and  _216
REMARK   86  A    between atoms: _215  and  _218
REMARK   87  A    between atoms: _218  and  _219
REMARK   88  A    between atoms: _222  and  _224
REMARK   89  A    between atoms: _224  and  _225
REMARK   90  A    between atoms: _224  and  _227
REMARK   91  A    between atoms: _227  and  _228
REMARK   92  A    between atoms: _231  and  _233
REMARK   93  A    between atoms: _233  and  _234
REMARK   94  A    between atoms: _233  and  _236
REMARK   95  A    between atoms: _236  and  _237
REMARK   96  A    between atoms: _237  and  _238
REMARK   97  A    between atoms: _238  and  _239
REMARK   98  A    between atoms: _239  and  _240
REMARK   99  A    between atoms: _244  and  _246
REMARK  100  A    between atoms: _246  and  _247
REMARK  101  A    between atoms: _246  and  _249
REMARK  102  A    between atoms: _249  and  _250
REMARK  103  A    between atoms: _253  and  _255
REMARK  104  A    between atoms: _255  and  _256
REMARK  105  A    between atoms: _255  and  _258
REMARK  106  A    between atoms: _258  and  _259
REMARK  107  A    between atoms: _264  and  _265
REMARK  108  A    between atoms: _267  and  _269
REMARK  109  A    between atoms: _269  and  _270
REMARK  110  A    between atoms: _269  and  _272
REMARK  111  A    between atoms: _272  and  _273
REMARK  112  A    between atoms: _276  and  _278
REMARK  113  A    between atoms: _278  and  _279
REMARK  114  A    between atoms: _278  and  _281
REMARK  115  A    between atoms: _283  and  _285
REMARK  116  A    between atoms: _285  and  _286
REMARK  117  A    between atoms: _289  and  _291
REMARK  118  A    between atoms: _291  and  _292
REMARK  119  A    between atoms: _291  and  _294
REMARK  120  A    between atoms: _294  and  _295
REMARK  121  A    between atoms: _295  and  _296
REMARK  122  A    between atoms: _296  and  _297
REMARK  123  A    between atoms: _297  and  _298
REMARK  124  A    between atoms: _302  and  _304
REMARK  125  A    between atoms: _304  and  _305
REMARK  126  A    between atoms: _304  and  _307
REMARK  127  A    between atoms: _307  and  _308
REMARK  128  A    between atoms: _311  and  _313
REMARK  129  A    between atoms: _313  and  _314
REMARK  130  A    between atoms: _317  and  _319
REMARK  131  A    between atoms: _319  and  _320
REMARK  132  A    between atoms: _319  and  _322
REMARK  133  A    between atoms: _322  and  _323
REMARK  134  A    between atoms: _323  and  _437
REMARK  135  A    between atoms: _324  and  _326
REMARK  136  A    between atoms: _326  and  _327
REMARK  137  A    between atoms: _326  and  _329
REMARK  138  A    between atoms: _329  and  _330
REMARK  139  A    between atoms: _330  and  _331
REMARK  140  A    between atoms: _331  and  _332
REMARK  141  A    between atoms: _332  and  _333
REMARK  142  A    between atoms: _337  and  _339
REMARK  143  A    between atoms: _339  and  _340
REMARK  144  A    between atoms: _342  and  _344
REMARK  145  A    between atoms: _344  and  _345
REMARK  146  A    between atoms: _344  and  _347
REMARK  147  A    between atoms: _347  and  _348
REMARK  148  A    between atoms: _351  and  _353
REMARK  149  A    between atoms: _353  and  _354
REMARK  150  A    between atoms: _353  and  _356
REMARK  151  A    between atoms: _356  and  _357
REMARK  152  A    between atoms: _359  and  _361
REMARK  153  A    between atoms: _361  and  _362
REMARK  154  A    between atoms: _364  and  _366
REMARK  155  A    between atoms: _366  and  _367
REMARK  156  A    between atoms: _369  and  _371
REMARK  157  A    between atoms: _371  and  _372
REMARK  158  A    between atoms: _371  and  _374
REMARK  159  A    between atoms: _374  and  _375
REMARK  160  A    between atoms: _378  and  _380
REMARK  161  A    between atoms: _380  and  _381
REMARK  162  A    between atoms: _380  and  _383
REMARK  163  A    between atoms: _383  and  _384
REMARK  164  A    between atoms: _387  and  _389
REMARK  165  A    between atoms: _389  and  _390
REMARK  166  A    between atoms: _389  and  _392
REMARK  167  A    between atoms: _392  and  _393
REMARK  168  A    between atoms: _395  and  _397
REMARK  169  A    between atoms: _397  and  _398
REMARK  170  A    between atoms: _397  and  _400
REMARK  171  A    between atoms: _400  and  _401
REMARK  172  A    between atoms: _411  and  _413
REMARK  173  A    between atoms: _413  and  _414
REMARK  174  A    between atoms: _416  and  _418
REMARK  175  A    between atoms: _418  and  _419
REMARK  176  A    between atoms: _418  and  _421
REMARK  177  A    between atoms: _421  and  _422
REMARK  178  A    between atoms: _422  and  _423
REMARK  179  A    between atoms: _426  and  _428
REMARK  180  A    between atoms: _428  and  _429
REMARK  181  A    between atoms: _431  and  _433
REMARK  182  A    between atoms: _433  and  _434
REMARK  183  A    between atoms: _433  and  _436
REMARK  184  A    between atoms: _436  and  _437
REMARK  185  A    between atoms: _438  and  _440
REMARK  186  A    between atoms: _440  and  _441
REMARK  187  A    between atoms: _444  and  _446
REMARK  188  A    between atoms: _446  and  _447
REMARK  189  A    between atoms: _446  and  _449
REMARK  190  A    between atoms: _449  and  _450
REMARK  191  A    between atoms: _450  and  _451
REMARK  192  A    between atoms: _456  and  _458
REMARK  193  A    between atoms: _458  and  _459
REMARK  194  A    between atoms: _458  and  _461
REMARK  195  A    between atoms: _461  and  _462
REMARK  196  A    between atoms: _462  and  _463
REMARK  197  A    between atoms: _463  and  _464
REMARK  198  A    between atoms: _474  and  _475
REMARK  199  A    between atoms: _480  and  _482
REMARK  200  A    between atoms: _482  and  _483
REMARK  201  A    between atoms: _485  and  _487
REMARK  202  A    between atoms: _487  and  _488
REMARK  203  A    between atoms: _487  and  _490
REMARK  204  A    between atoms: _493  and  _495
REMARK  205  A    between atoms: _495  and  _496
REMARK  206  A    between atoms: _495  and  _498
REMARK  207  A    between atoms: _498  and  _499
REMARK  208  A    between atoms: _504  and  _505
REMARK  209  A    between atoms: _507  and  _509
REMARK  210  A    between atoms: _509  and  _510
REMARK  211  A    between atoms: _509  and  _512
REMARK  212  A    between atoms: _512  and  _513
REMARK                            x       y       z     vdW  Elec       q    Type
REMARK                         _______ _______ _______ _____ _____    ______ ____
ROOT
ATOM      1  CA  ASP A   1      28.694 -24.558  29.884  0.00  0.00    +0.144 C 
ENDROOT
BRANCH   1   2
ATOM      2  N   ASP A   1      27.306 -24.532  29.429  0.00  0.00    -0.239 NA
ATOM      3  H   ASP A   1      26.893 -23.631  29.114  0.00  0.00    +0.142 HD
ENDBRANCH   1   2
BRANCH   1   4
ATOM      4  C   ASP A   1      28.731 -24.480  31.402  0.00  0.00    +0.225 C 
ATOM      5  O   ASP A   1      29.054 -23.452  32.006  0.00  0.00    -0.287 OA
ENDBRANCH   1   4
BRANCH   1   6
ATOM      6  CB  ASP A   1      29.500 -23.436  29.211  0.00  0.00    +0.139 C 
BRANCH   6   7
ATOM      7  CG  ASP A   1      30.995 -23.600  29.327  0.00  0.00    +0.367 C 
ATOM      8  OD2 ASP A   1      31.444 -24.671  29.783  0.00  0.00    -0.246 OA
ATOM      9  OD1 ASP A   1      31.712 -22.634  29.028  0.00  0.00    -0.246 OA
ENDBRANCH   6   7
ENDBRANCH   1   6
TORSDOF 4
REMARK  Name = ../refined-set-2016/5e2o/5e2o_pocket.pdb
REMARK  212 active torsions:
REMARK  status: ('A' for Active; 'I' for Inactive)
REMARK    1  A    between atoms: _1  and  _5
REMARK    2  A    between atoms: _5  and  _6
REMARK    3  A    between atoms: _5  and  _8
REMARK    4  A    between atoms: _8  and  _9
REMARK    5  A    between atoms: _12  and  _14
REMARK    6  A    between atoms: _14  and  _15
REMARK    7  A    between atoms: _14  and  _17
REMARK    8  A    between atoms: _20  and  _22
REMARK    9  A    between atoms: _22  and  _23
REMARK   10  A    between atoms: _22  and  _25
REMARK   11  A    between atoms: _25  and  _26
REMARK   12  A    between atoms: _29  and  _31
REMARK   13  A    between atoms: _31  and  _32
REMARK   14  A    between atoms: _31  and  _34
REMARK   15  A    between atoms: _34  and  _35
REMARK   16  A    between atoms: _35  and  _36
REMARK   17  A    between atoms: _36  and  _37
REMARK   18  A    between atoms: _46  and  _48
REMARK   19  A    between atoms: _48  and  _49
REMARK   20  A    between atoms: _48  and  _51
REMARK   21  A    between atoms: _51  and  _52
REMARK   22  A    between atoms: _57  and  _59
REMARK   23  A    between atoms: _59  and  _60
REMARK   24  A    between atoms: _59  and  _62
REMARK   25  A    between atoms: _62  and  _63
REMARK   26  A    between atoms: _66  and  _68
REMARK   27  A    between atoms: _68  and  _69
REMARK   28  A    between atoms: _68  and  _71
REMARK   29  A    between atoms: _71  and  _72
REMARK   30  A    between atoms: _72  and  _107
REMARK   31  A    between atoms: _73  and  _75
REMARK   32  A    between atoms: _75  and  _76
REMARK   33  A    between atoms: _78  and  _80
REMARK   34  A    between atoms: _80  and  _81
REMARK   35  A    between atoms: _84  and  _86
REMARK   36  A    between atoms: _86  and  _87
REMARK   37  A    between atoms: _90  and  _92
REMARK   38  A    between atoms: _92  and  _93
REMARK   39  A    between atoms: _92  and  _95
REMARK   40  A    between atoms: _95  and  _96
REMARK   41  A    between atoms: _101  and  _103
REMARK   42  A    between atoms: _103  and  _104
REMARK   43  A    between atoms: _103  and  _106
REMARK   44  A    between atoms: _106  and  _107
REMARK   45  A    between atoms: _108  and  _110
REMARK   46  A    between atoms: _110  and  _111
REMARK   47  A    between atoms: _110  and  _113
REMARK   48  A    between atoms: _113  and  _114
REMARK   49  A    between atoms: _120  and  _122
REMARK   50  A    between atoms: _122  and  _123
REMARK   51  A    between atoms: _122  and  _125
REMARK   52  A    between atoms: _125  and  _126
REMARK   53  A    between atoms: _131  and  _132
REMARK   54  A    between atoms: _134  and  _136
REMARK   55  A    between atoms: _136  and  _137
REMARK   56  A    between atoms: _136  and  _139
REMARK   57  A    between atoms: _142  and  _144
REMARK   58  A    between atoms: _144  and  _145
REMARK   59  A    between atoms: _148  and  _150
REMARK   60  A    between atoms: _150  and  _151
REMARK   61  A    between atoms: _150  and  _153
REMARK   62  A    between atoms: _153  and  _154
REMARK   63  A    between atoms: _157  and  _159
REMARK   64  A    between atoms: _159  and  _160
REMARK   65  A    between atoms: _159  and  _162
REMARK   66  A    between atoms: _165  and  _167
REMARK   67  A    between atoms: _167  and  _168
REMARK   68  A    between atoms: _167  and  _170
REMARK   69  A    between atoms: _170  and  _171
REMARK   70  A    between atoms: _181  and  _183
REMARK   71  A    between atoms: _183  and  _184
REMARK   72  A    between atoms: _186  and  _188
REMARK   73  A    between atoms: _188  and  _189
REMARK   74  A    between atoms: _188  and  _191
REMARK   75  A    between atoms: _191  and  _192
REMARK   76  A    between atoms: _197  and  _198
REMARK   77  A    between atoms: _200  and  _202
REMARK   78  A    between atoms: _202  and  _203
REMARK   79  A    between atoms: _202  and  _205
REMARK   80  A    between atoms: _205  and  _206
REMARK   81  A    between atoms: _206  and  _207
REMARK   82  A    between atoms: _207  and  _208
REMARK   83  A    between atoms: _208  and  _209
REMARK   84  A    between atoms: _213  and  _215
REMARK   85  A    between atoms: _215  and  _216
REMARK   86  A    between atoms: _215  and  _218
REMARK   87  A    between atoms: _218  and  _219
REMARK   88  A    between atoms: _222  and  _224
REMARK   89  A    between atoms: _224  and  _225
REMARK   90  A    between atoms: _224  and  _227
REMARK   91  A    between atoms: _227  and  _228
REMARK   92  A    between atoms: _231  and  _233
REMARK   93  A    between atoms: _233  and  _234
REMARK   94  A    between atoms: _233  and  _236
REMARK   95  A    between atoms: _236  and  _237
REMARK   96  A    between atoms: _237  and  _238
REMARK   97  A    between atoms: _238  and  _239
REMARK   98  A    between atoms: _239  and  _240
REMARK   99  A    between atoms: _244  and  _246
REMARK  100  A    between atoms: _246  and  _247
REMARK  101  A    between atoms: _246  and  _249
REMARK  102  A    between atoms: _249  and  _250
REMARK  103  A    between atoms: _253  and  _255
REMARK  104  A    between atoms: _255  and  _256
REMARK  105  A    between atoms: _255  and  _258
REMARK  106  A    between atoms: _258  and  _259
REMARK  107  A    between atoms: _264  and  _265
REMARK  108  A    between atoms: _267  and  _269
REMARK  109  A    between atoms: _269  and  _270
REMARK  110  A    between atoms: _269  and  _272
REMARK  111  A    between atoms: _272  and  _273
REMARK  112  A    between atoms: _276  and  _278
REMARK  113  A    between atoms: _278  and  _279
REMARK  114  A    between atoms: _278  and  _281
REMARK  115  A    between atoms: _283  and  _285
REMARK  116  A    between atoms: _285  and  _286
REMARK  117  A    between atoms: _289  and  _291
REMARK  118  A    between atoms: _291  and  _292
REMARK  119  A    between atoms: _291  and  _294
REMARK  120  A    between atoms: _294  and  _295
REMARK  121  A    between atoms: _295  and  _296
REMARK  122  A    between atoms: _296  and  _297
REMARK  123  A    between atoms: _297  and  _298
REMARK  124  A    between atoms: _302  and  _304
REMARK  125  A    between atoms: _304  and  _305
REMARK  126  A    between atoms: _304  and  _307
REMARK  127  A    between atoms: _307  and  _308
REMARK  128  A    between atoms: _311  and  _313
REMARK  129  A    between atoms: _313  and  _314
REMARK  130  A    between atoms: _317  and  _319
REMARK  131  A    between atoms: _319  and  _320
REMARK  132  A    between atoms: _319  and  _322
REMARK  133  A    between atoms: _322  and  _323
REMARK  134  A    between atoms: _323  and  _437
REMARK  135  A    between atoms: _324  and  _326
REMARK  136  A    between atoms: _326  and  _327
REMARK  137  A    between atoms: _326  and  _329
REMARK  138  A    between atoms: _329  and  _330
REMARK  139  A    between atoms: _330  and  _331
REMARK  140  A    between atoms: _331  and  _332
REMARK  141  A    between atoms: _332  and  _333
REMARK  142  A    between atoms: _337  and  _339
REMARK  143  A    between atoms: _339  and  _340
REMARK  144  A    between atoms: _342  and  _344
REMARK  145  A    between atoms: _344  and  _345
REMARK  146  A    between atoms: _344  and  _347
REMARK  147  A    between atoms: _347  and  _348
REMARK  148  A    between atoms: _351  and  _353
REMARK  149  A    between atoms: _353  and  _354
REMARK  150  A    between atoms: _353  and  _356
REMARK  151  A    between atoms: _356  and  _357
REMARK  152  A    between atoms: _359  and  _361
REMARK  153  A    between atoms: _361  and  _362
REMARK  154  A    between atoms: _364  and  _366
REMARK  155  A    between atoms: _366  and  _367
REMARK  156  A    between atoms: _369  and  _371
REMARK  157  A    between atoms: _371  and  _372
REMARK  158  A    between atoms: _371  and  _374
REMARK  159  A    between atoms: _374  and  _375
REMARK  160  A    between atoms: _378  and  _380
REMARK  161  A    between atoms: _380  and  _381
REMARK  162  A    between atoms: _380  and  _383
REMARK  163  A    between atoms: _383  and  _384
REMARK  164  A    between atoms: _387  and  _389
REMARK  165  A    between atoms: _389  and  _390
REMARK  166  A    between atoms: _389  and  _392
REMARK  167  A    between atoms: _392  and  _393
REMARK  168  A    between atoms: _395  and  _397
REMARK  169  A    between atoms: _397  and  _398
REMARK  170  A    between atoms: _397  and  _400
REMARK  171  A    between atoms: _400  and  _401
REMARK  172  A    between atoms: _411  and  _413
REMARK  173  A    between atoms: _413  and  _414
REMARK  174  A    between atoms: _416  and  _418
REMARK  175  A    between atoms: _418  and  _419
REMARK  176  A    between atoms: _418  and  _421
REMARK  177  A    between atoms: _421  and  _422
REMARK  178  A    between atoms: _422  and  _423
REMARK  179  A    between atoms: _426  and  _428
REMARK  180  A    between atoms: _428  and  _429
REMARK  181  A    between atoms: _431  and  _433
REMARK  182  A    between atoms: _433  and  _434
REMARK  183  A    between atoms: _433  and  _436
REMARK  184  A    between atoms: _436  and  _437
REMARK  185  A    between atoms: _438  and  _440
REMARK  186  A    between atoms: _440  and  _441
REMARK  187  A    between atoms: _444  and  _446
REMARK  188  A    between atoms: _446  and  _447
REMARK  189  A    between atoms: _446  and  _449
REMARK  190  A    between atoms: _449  and  _450
REMARK  191  A    between atoms: _450  and  _451
REMARK  192  A    between atoms: _456  and  _458
REMARK  193  A    between atoms: _458  and  _459
REMARK  194  A    between atoms: _458  and  _461
REMARK  195  A    between atoms: _461  and  _462
REMARK  196  A    between atoms: _462  and  _463
REMARK  197  A    between atoms: _463  and  _464
REMARK  198  A    between atoms: _474  and  _475
REMARK  199  A    between atoms: _480  and  _482
REMARK  200  A    between atoms: _482  and  _483
REMARK  201  A    between atoms: _485  and  _487
REMARK  202  A    between atoms: _487  and  _488
REMARK  203  A    between atoms: _487  and  _490
REMARK  204  A    between atoms: _493  and  _495
REMARK  205  A    between atoms: _495  and  _496
REMARK  206  A    between atoms: _495  and  _498
REMARK  207  A    between atoms: _498  and  _499
REMARK  208  A    between atoms: _504  and  _505
REMARK  209  A    between atoms: _507  and  _509
REMARK  210  A    between atoms: _509  and  _510
REMARK  211  A    between atoms: _509  and  _512
REMARK  212  A    between atoms: _512  and  _513
REMARK                            x       y       z     vdW  Elec       q    Type
REMARK                         _______ _______ _______ _____ _____    ______ ____
ROOT
ATOM      1  CA  VAL A   1      34.480 -10.878  37.566  0.00  0.00    +0.133 C 
ENDROOT
BRANCH   1   2
ATOM      2  CB  VAL A   1      34.439 -10.944  36.005  0.00  0.00    +0.023 C 
ATOM      3  CG2 VAL A   1      34.913 -12.307  35.512  0.00  0.00    +0.002 C 
ATOM      4  CG1 VAL A   1      35.252  -9.820  35.344  0.00  0.00    +0.002 C 
ENDBRANCH   1   2
BRANCH   1   5
ATOM      5  N   VAL A   1      33.877  -9.676  38.150  0.00  0.00    -0.239 NA
ATOM      6  H   VAL A   1      34.263  -8.754  37.863  0.00  0.00    +0.142 HD
ENDBRANCH   1   5
BRANCH   1   7
ATOM      7  C   VAL A   1      35.880 -10.998  38.163  0.00  0.00    +0.224 C 
ATOM      8  O   VAL A   1      36.612 -10.003  38.236  0.00  0.00    -0.287 OA
ENDBRANCH   1   7
TORSDOF 3
REMARK  Name = ../refined-set-2016/5e2o/5e2o_pocket.pdb
REMARK  212 active torsions:
REMARK  status: ('A' for Active; 'I' for Inactive)
REMARK    1  A    between atoms: _1  and  _5
REMARK    2  A    between atoms: _5  and  _6
REMARK    3  A    between atoms: _5  and  _8
REMARK    4  A    between atoms: _8  and  _9
REMARK    5  A    between atoms: _12  and  _14
REMARK    6  A    between atoms: _14  and  _15
REMARK    7  A    between atoms: _14  and  _17
REMARK    8  A    between atoms: _20  and  _22
REMARK    9  A    between atoms: _22  and  _23
REMARK   10  A    between atoms: _22  and  _25
REMARK   11  A    between atoms: _25  and  _26
REMARK   12  A    between atoms: _29  and  _31
REMARK   13  A    between atoms: _31  and  _32
REMARK   14  A    between atoms: _31  and  _34
REMARK   15  A    between atoms: _34  and  _35
REMARK   16  A    between atoms: _35  and  _36
REMARK   17  A    between atoms: _36  and  _37
REMARK   18  A    between atoms: _46  and  _48
REMARK   19  A    between atoms: _48  and  _49
REMARK   20  A    between atoms: _48  and  _51
REMARK   21  A    between atoms: _51  and  _52
REMARK   22  A    between atoms: _57  and  _59
REMARK   23  A    between atoms: _59  and  _60
REMARK   24  A    between atoms: _59  and  _62
REMARK   25  A    between atoms: _62  and  _63
REMARK   26  A    between atoms: _66  and  _68
REMARK   27  A    between atoms: _68  and  _69
REMARK   28  A    between atoms: _68  and  _71
REMARK   29  A    between atoms: _71  and  _72
REMARK   30  A    between atoms: _72  and  _107
REMARK   31  A    between atoms: _73  and  _75
REMARK   32  A    between atoms: _75  and  _76
REMARK   33  A    between atoms: _78  and  _80
REMARK   34  A    between atoms: _80  and  _81
REMARK   35  A    between atoms: _84  and  _86
REMARK   36  A    between atoms: _86  and  _87
REMARK   37  A    between atoms: _90  and  _92
REMARK   38  A    between atoms: _92  and  _93
REMARK   39  A    between atoms: _92  and  _95
REMARK   40  A    between atoms: _95  and  _96
REMARK   41  A    between atoms: _101  and  _103
REMARK   42  A    between atoms: _103  and  _104
REMARK   43  A    between atoms: _103  and  _106
REMARK   44  A    between atoms: _106  and  _107
REMARK   45  A    between atoms: _108  and  _110
REMARK   46  A    between atoms: _110  and  _111
REMARK   47  A    between atoms: _110  and  _113
REMARK   48  A    between atoms: _113  and  _114
REMARK   49  A    between atoms: _120  and  _122
REMARK   50  A    between atoms: _122  and  _123
REMARK   51  A    between atoms: _122  and  _125
REMARK   52  A    between atoms: _125  and  _126
REMARK   53  A    between atoms: _131  and  _132
REMARK   54  A    between atoms: _134  and  _136
REMARK   55  A    between atoms: _136  and  _137
REMARK   56  A    between atoms: _136  and  _139
REMARK   57  A    between atoms: _142  and  _144
REMARK   58  A    between atoms: _144  and  _145
REMARK   59  A    between atoms: _148  and  _150
REMARK   60  A    between atoms: _150  and  _151
REMARK   61  A    between atoms: _150  and  _153
REMARK   62  A    between atoms: _153  and  _154
REMARK   63  A    between atoms: _157  and  _159
REMARK   64  A    between atoms: _159  and  _160
REMARK   65  A    between atoms: _159  and  _162
REMARK   66  A    between atoms: _165  and  _167
REMARK   67  A    between atoms: _167  and  _168
REMARK   68  A    between atoms: _167  and  _170
REMARK   69  A    between atoms: _170  and  _171
REMARK   70  A    between atoms: _181  and  _183
REMARK   71  A    between atoms: _183  and  _184
REMARK   72  A    between atoms: _186  and  _188
REMARK   73  A    between atoms: _188  and  _189
REMARK   74  A    between atoms: _188  and  _191
REMARK   75  A    between atoms: _191  and  _192
REMARK   76  A    between atoms: _197  and  _198
REMARK   77  A    between atoms: _200  and  _202
REMARK   78  A    between atoms: _202  and  _203
REMARK   79  A    between atoms: _202  and  _205
REMARK   80  A    between atoms: _205  and  _206
REMARK   81  A    between atoms: _206  and  _207
REMARK   82  A    between atoms: _207  and  _208
REMARK   83  A    between atoms: _208  and  _209
REMARK   84  A    between atoms: _213  and  _215
REMARK   85  A    between atoms: _215  and  _216
REMARK   86  A    between atoms: _215  and  _218
REMARK   87  A    between atoms: _218  and  _219
REMARK   88  A    between atoms: _222  and  _224
REMARK   89  A    between atoms: _224  and  _225
REMARK   90  A    between atoms: _224  and  _227
REMARK   91  A    between atoms: _227  and  _228
REMARK   92  A    between atoms: _231  and  _233
REMARK   93  A    between atoms: _233  and  _234
REMARK   94  A    between atoms: _233  and  _236
REMARK   95  A    between atoms: _236  and  _237
REMARK   96  A    between atoms: _237  and  _238
REMARK   97  A    between atoms: _238  and  _239
REMARK   98  A    between atoms: _239  and  _240
REMARK   99  A    between atoms: _244  and  _246
REMARK  100  A    between atoms: _246  and  _247
REMARK  101  A    between atoms: _246  and  _249
REMARK  102  A    between atoms: _249  and  _250
REMARK  103  A    between atoms: _253  and  _255
REMARK  104  A    between atoms: _255  and  _256
REMARK  105  A    between atoms: _255  and  _258
REMARK  106  A    between atoms: _258  and  _259
REMARK  107  A    between atoms: _264  and  _265
REMARK  108  A    between atoms: _267  and  _269
REMARK  109  A    between atoms: _269  and  _270
REMARK  110  A    between atoms: _269  and  _272
REMARK  111  A    between atoms: _272  and  _273
REMARK  112  A    between atoms: _276  and  _278
REMARK  113  A    between atoms: _278  and  _279
REMARK  114  A    between atoms: _278  and  _281
REMARK  115  A    between atoms: _283  and  _285
REMARK  116  A    between atoms: _285  and  _286
REMARK  117  A    between atoms: _289  and  _291
REMARK  118  A    between atoms: _291  and  _292
REMARK  119  A    between atoms: _291  and  _294
REMARK  120  A    between atoms: _294  and  _295
REMARK  121  A    between atoms: _295  and  _296
REMARK  122  A    between atoms: _296  and  _297
REMARK  123  A    between atoms: _297  and  _298
REMARK  124  A    between atoms: _302  and  _304
REMARK  125  A    between atoms: _304  and  _305
REMARK  126  A    between atoms: _304  and  _307
REMARK  127  A    between atoms: _307  and  _308
REMARK  128  A    between atoms: _311  and  _313
REMARK  129  A    between atoms: _313  and  _314
REMARK  130  A    between atoms: _317  and  _319
REMARK  131  A    between atoms: _319  and  _320
REMARK  132  A    between atoms: _319  and  _322
REMARK  133  A    between atoms: _322  and  _323
REMARK  134  A    between atoms: _323  and  _437
REMARK  135  A    between atoms: _324  and  _326
REMARK  136  A    between atoms: _326  and  _327
REMARK  137  A    between atoms: _326  and  _329
REMARK  138  A    between atoms: _329  and  _330
REMARK  139  A    between atoms: _330  and  _331
REMARK  140  A    between atoms: _331  and  _332
REMARK  141  A    between atoms: _332  and  _333
REMARK  142  A    between atoms: _337  and  _339
REMARK  143  A    between atoms: _339  and  _340
REMARK  144  A    between atoms: _342  and  _344
REMARK  145  A    between atoms: _344  and  _345
REMARK  146  A    between atoms: _344  and  _347
REMARK  147  A    between atoms: _347  and  _348
REMARK  148  A    between atoms: _351  and  _353
REMARK  149  A    between atoms: _353  and  _354
REMARK  150  A    between atoms: _353  and  _356
REMARK  151  A    between atoms: _356  and  _357
REMARK  152  A    between atoms: _359  and  _361
REMARK  153  A    between atoms: _361  and  _362
REMARK  154  A    between atoms: _364  and  _366
REMARK  155  A    between atoms: _366  and  _367
REMARK  156  A    between atoms: _369  and  _371
REMARK  157  A    between atoms: _371  and  _372
REMARK  158  A    between atoms: _371  and  _374
REMARK  159  A    between atoms: _374  and  _375
REMARK  160  A    between atoms: _378  and  _380
REMARK  161  A    between atoms: _380  and  _381
REMARK  162  A    between atoms: _380  and  _383
REMARK  163  A    between atoms: _383  and  _384
REMARK  164  A    between atoms: _387  and  _389
REMARK  165  A    between atoms: _389  and  _390
REMARK  166  A    between atoms: _389  and  _392
REMARK  167  A    between atoms: _392  and  _393
REMARK  168  A    between atoms: _395  and  _397
REMARK  169  A    between atoms: _397  and  _398
REMARK  170  A    between atoms: _397  and  _400
REMARK  171  A    between atoms: _400  and  _401
REMARK  172  A    between atoms: _411  and  _413
REMARK  173  A    between atoms: _413  and  _414
REMARK  174  A    between atoms: _416  and  _418
REMARK  175  A    between atoms: _418  and  _419
REMARK  176  A    between atoms: _418  and  _421
REMARK  177  A    between atoms: _421  and  _422
REMARK  178  A    between atoms: _422  and  _423
REMARK  179  A    between atoms: _426  and  _428
REMARK  180  A    between atoms: _428  and  _429
REMARK  181  A    between atoms: _431  and  _433
REMARK  182  A    between atoms: _433  and  _434
REMARK  183  A    between atoms: _433  and  _436
REMARK  184  A    between atoms: _436  and  _437
REMARK  185  A    between atoms: _438  and  _440
REMARK  186  A    between atoms: _440  and  _441
REMARK  187  A    between atoms: _444  and  _446
REMARK  188  A    between atoms: _446  and  _447
REMARK  189  A    between atoms: _446  and  _449
REMARK  190  A    between atoms: _449  and  _450
REMARK  191  A    between atoms: _450  and  _451
REMARK  192  A    between atoms: _456  and  _458
REMARK  193  A    between atoms: _458  and  _459
REMARK  194  A    between atoms: _458  and  _461
REMARK  195  A    between atoms: _461  and  _462
REMARK  196  A    between atoms: _462  and  _463
REMARK  197  A    between atoms: _463  and  _464
REMARK  198  A    between atoms: _474  and  _475
REMARK  199  A    between atoms: _480  and  _482
REMARK  200  A    between atoms: _482  and  _483
REMARK  201  A    between atoms: _485  and  _487
REMARK  202  A    between atoms: _487  and  _488
REMARK  203  A    between atoms: _487  and  _490
REMARK  204  A    between atoms: _493  and  _495
REMARK  205  A    between atoms: _495  and  _496
REMARK  206  A    between atoms: _495  and  _498
REMARK  207  A    between atoms: _498  and  _499
REMARK  208  A    between atoms: _504  and  _505
REMARK  209  A    between atoms: _507  and  _509
REMARK  210  A    between atoms: _509  and  _510
REMARK  211  A    between atoms: _509  and  _512
REMARK  212  A    between atoms: _512  and  _513
REMARK                            x       y       z     vdW  Elec       q    Type
REMARK                         _______ _______ _______ _____ _____    ______ ____
ROOT
ATOM      1  C   TRP A   1      44.390 -15.564  36.475  0.00  0.00    +0.239 C 
ATOM      2  O   TRP A   1      45.544 -15.797  36.138  0.00  0.00    -0.274 OA
ATOM      3  N   GLY A   2      43.435 -15.307  35.602  0.00  0.00    -0.296 N 
ATOM      4  H   GLY A   2      42.479 -15.091  35.950  0.00  0.00    +0.150 HD
ENDROOT
BRANCH   1   5
ATOM      5  CA  TRP A   1      43.992 -15.567  37.980  0.00  0.00    +0.149 C 
BRANCH   5   6
ATOM      6  N   TRP A   1      42.527 -15.617  38.120  0.00  0.00    -0.238 NA
ATOM      7  H   TRP A   1      42.050 -16.533  37.995  0.00  0.00    +0.142 HD
ENDBRANCH   5   6
BRANCH   5   8
ATOM      8  CB  TRP A   1      44.649 -16.763  38.693  0.00  0.00    +0.054 C 
BRANCH   8   9
ATOM      9  CG  TRP A   1      44.573 -16.705  40.194  0.00  0.00    -0.002 A 
ATOM     10  CD1 TRP A   1      45.474 -16.117  41.043  0.00  0.00    +0.068 A 
ATOM     11  NE1 TRP A   1      45.065 -16.279  42.354  0.00  0.00    -0.352 N 
ATOM     12  HE1 TRP A   1      45.575 -15.935  43.193  0.00  0.00    +0.166 HD
ATOM     13  CE2 TRP A   1      43.875 -16.969  42.369  0.00  0.00    +0.056 A 
ATOM     14  CZ2 TRP A   1      43.097 -17.417  43.452  0.00  0.00    +0.017 A 
ATOM     15  CH2 TRP A   1      41.933 -18.093  43.162  0.00  0.00    +0.001 A 
ATOM     16  CZ3 TRP A   1      41.558 -18.377  41.834  0.00  0.00    +0.000 A 
ATOM     17  CE3 TRP A   1      42.357 -17.987  40.759  0.00  0.00    +0.001 A 
ATOM     18  CD2 TRP A   1      43.536 -17.255  41.022  0.00  0.00    +0.013 A 
ENDBRANCH   8   9
ENDBRANCH   5   8
ENDBRANCH   1   5
BRANCH   3  19
ATOM     19  CA  GLY A   2      43.677 -15.316  34.162  0.00  0.00    +0.176 C 
BRANCH  19  20
ATOM     20  C   GLY A   2      44.544 -14.177  33.644  0.00  0.00    +0.243 C 
ATOM     21  O   GLY A   2      44.938 -13.279  34.396  0.00  0.00    -0.273 OA
ATOM     22  N   TYR A   3      44.807 -14.196  32.332  0.00  0.00    -0.298 N 
ATOM     23  H   TYR A   3      44.377 -14.957  31.768  0.00  0.00    +0.150 HD
BRANCH  22  24
ATOM     24  CA  TYR A   3      45.650 -13.232  31.629  0.00  0.00    +0.141 C 
BRANCH  24  25
ATOM     25  C   TYR A   3      45.101 -11.820  31.757  0.00  0.00    +0.227 C 
ATOM     26  O   TYR A   3      43.882 -11.649  31.814  0.00  0.00    -0.286 OA
ENDBRANCH  24  25
BRANCH  24  27
ATOM     27  CB  TYR A   3      45.655 -13.584  30.136  0.00  0.00    +0.054 C 
BRANCH  27  28
ATOM     28  CG  TYR A   3      46.399 -14.823  29.690  0.00  0.00    -0.020 A 
ATOM     29  CD2 TYR A   3      46.711 -15.844  30.592  0.00  0.00    -0.001 A 
ATOM     30  CE2 TYR A   3      47.340 -17.014  30.168  0.00  0.00    +0.036 A 
ATOM     31  CZ  TYR A   3      47.680 -17.165  28.828  0.00  0.00    +0.134 A 
ATOM     32  CE1 TYR A   3      47.377 -16.170  27.919  0.00  0.00    +0.036 A 
ATOM     33  CD1 TYR A   3      46.738 -15.007  28.353  0.00  0.00    -0.001 A 
BRANCH  31  34
ATOM     34  OH  TYR A   3      48.321 -18.290  28.381  0.00  0.00    -0.506 OA
ATOM     35  HH  TYR A   3      48.470 -18.908  29.140  0.00  0.00    +0.292 HD
ENDBRANCH  31  34
ENDBRANCH  27  28
ENDBRANCH  24  27
ENDBRANCH  22  24
ENDBRANCH  19  20
ENDBRANCH   3  19
TORSDOF 11
REMARK  Name = ../refined-set-2016/5e2o/5e2o_pocket.pdb
REMARK  212 active torsions:
REMARK  status: ('A' for Active; 'I' for Inactive)
REMARK    1  A    between atoms: _1  and  _5
REMARK    2  A    between atoms: _5  and  _6
REMARK    3  A    between atoms: _5  and  _8
REMARK    4  A    between atoms: _8  and  _9
REMARK    5  A    between atoms: _12  and  _14
REMARK    6  A    between atoms: _14  and  _15
REMARK    7  A    between atoms: _14  and  _17
REMARK    8  A    between atoms: _20  and  _22
REMARK    9  A    between atoms: _22  and  _23
REMARK   10  A    between atoms: _22  and  _25
REMARK   11  A    between atoms: _25  and  _26
REMARK   12  A    between atoms: _29  and  _31
REMARK   13  A    between atoms: _31  and  _32
REMARK   14  A    between atoms: _31  and  _34
REMARK   15  A    between atoms: _34  and  _35
REMARK   16  A    between atoms: _35  and  _36
REMARK   17  A    between atoms: _36  and  _37
REMARK   18  A    between atoms: _46  and  _48
REMARK   19  A    between atoms: _48  and  _49
REMARK   20  A    between atoms: _48  and  _51
REMARK   21  A    between atoms: _51  and  _52
REMARK   22  A    between atoms: _57  and  _59
REMARK   23  A    between atoms: _59  and  _60
REMARK   24  A    between atoms: _59  and  _62
REMARK   25  A    between atoms: _62  and  _63
REMARK   26  A    between atoms: _66  and  _68
REMARK   27  A    between atoms: _68  and  _69
REMARK   28  A    between atoms: _68  and  _71
REMARK   29  A    between atoms: _71  and  _72
REMARK   30  A    between atoms: _72  and  _107
REMARK   31  A    between atoms: _73  and  _75
REMARK   32  A    between atoms: _75  and  _76
REMARK   33  A    between atoms: _78  and  _80
REMARK   34  A    between atoms: _80  and  _81
REMARK   35  A    between atoms: _84  and  _86
REMARK   36  A    between atoms: _86  and  _87
REMARK   37  A    between atoms: _90  and  _92
REMARK   38  A    between atoms: _92  and  _93
REMARK   39  A    between atoms: _92  and  _95
REMARK   40  A    between atoms: _95  and  _96
REMARK   41  A    between atoms: _101  and  _103
REMARK   42  A    between atoms: _103  and  _104
REMARK   43  A    between atoms: _103  and  _106
REMARK   44  A    between atoms: _106  and  _107
REMARK   45  A    between atoms: _108  and  _110
REMARK   46  A    between atoms: _110  and  _111
REMARK   47  A    between atoms: _110  and  _113
REMARK   48  A    between atoms: _113  and  _114
REMARK   49  A    between atoms: _120  and  _122
REMARK   50  A    between atoms: _122  and  _123
REMARK   51  A    between atoms: _122  and  _125
REMARK   52  A    between atoms: _125  and  _126
REMARK   53  A    between atoms: _131  and  _132
REMARK   54  A    between atoms: _134  and  _136
REMARK   55  A    between atoms: _136  and  _137
REMARK   56  A    between atoms: _136  and  _139
REMARK   57  A    between atoms: _142  and  _144
REMARK   58  A    between atoms: _144  and  _145
REMARK   59  A    between atoms: _148  and  _150
REMARK   60  A    between atoms: _150  and  _151
REMARK   61  A    between atoms: _150  and  _153
REMARK   62  A    between atoms: _153  and  _154
REMARK   63  A    between atoms: _157  and  _159
REMARK   64  A    between atoms: _159  and  _160
REMARK   65  A    between atoms: _159  and  _162
REMARK   66  A    between atoms: _165  and  _167
REMARK   67  A    between atoms: _167  and  _168
REMARK   68  A    between atoms: _167  and  _170
REMARK   69  A    between atoms: _170  and  _171
REMARK   70  A    between atoms: _181  and  _183
REMARK   71  A    between atoms: _183  and  _184
REMARK   72  A    between atoms: _186  and  _188
REMARK   73  A    between atoms: _188  and  _189
REMARK   74  A    between atoms: _188  and  _191
REMARK   75  A    between atoms: _191  and  _192
REMARK   76  A    between atoms: _197  and  _198
REMARK   77  A    between atoms: _200  and  _202
REMARK   78  A    between atoms: _202  and  _203
REMARK   79  A    between atoms: _202  and  _205
REMARK   80  A    between atoms: _205  and  _206
REMARK   81  A    between atoms: _206  and  _207
REMARK   82  A    between atoms: _207  and  _208
REMARK   83  A    between atoms: _208  and  _209
REMARK   84  A    between atoms: _213  and  _215
REMARK   85  A    between atoms: _215  and  _216
REMARK   86  A    between atoms: _215  and  _218
REMARK   87  A    between atoms: _218  and  _219
REMARK   88  A    between atoms: _222  and  _224
REMARK   89  A    between atoms: _224  and  _225
REMARK   90  A    between atoms: _224  and  _227
REMARK   91  A    between atoms: _227  and  _228
REMARK   92  A    between atoms: _231  and  _233
REMARK   93  A    between atoms: _233  and  _234
REMARK   94  A    between atoms: _233  and  _236
REMARK   95  A    between atoms: _236  and  _237
REMARK   96  A    between atoms: _237  and  _238
REMARK   97  A    between atoms: _238  and  _239
REMARK   98  A    between atoms: _239  and  _240
REMARK   99  A    between atoms: _244  and  _246
REMARK  100  A    between atoms: _246  and  _247
REMARK  101  A    between atoms: _246  and  _249
REMARK  102  A    between atoms: _249  and  _250
REMARK  103  A    between atoms: _253  and  _255
REMARK  104  A    between atoms: _255  and  _256
REMARK  105  A    between atoms: _255  and  _258
REMARK  106  A    between atoms: _258  and  _259
REMARK  107  A    between atoms: _264  and  _265
REMARK  108  A    between atoms: _267  and  _269
REMARK  109  A    between atoms: _269  and  _270
REMARK  110  A    between atoms: _269  and  _272
REMARK  111  A    between atoms: _272  and  _273
REMARK  112  A    between atoms: _276  and  _278
REMARK  113  A    between atoms: _278  and  _279
REMARK  114  A    between atoms: _278  and  _281
REMARK  115  A    between atoms: _283  and  _285
REMARK  116  A    between atoms: _285  and  _286
REMARK  117  A    between atoms: _289  and  _291
REMARK  118  A    between atoms: _291  and  _292
REMARK  119  A    between atoms: _291  and  _294
REMARK  120  A    between atoms: _294  and  _295
REMARK  121  A    between atoms: _295  and  _296
REMARK  122  A    between atoms: _296  and  _297
REMARK  123  A    between atoms: _297  and  _298
REMARK  124  A    between atoms: _302  and  _304
REMARK  125  A    between atoms: _304  and  _305
REMARK  126  A    between atoms: _304  and  _307
REMARK  127  A    between atoms: _307  and  _308
REMARK  128  A    between atoms: _311  and  _313
REMARK  129  A    between atoms: _313  and  _314
REMARK  130  A    between atoms: _317  and  _319
REMARK  131  A    between atoms: _319  and  _320
REMARK  132  A    between atoms: _319  and  _322
REMARK  133  A    between atoms: _322  and  _323
REMARK  134  A    between atoms: _323  and  _437
REMARK  135  A    between atoms: _324  and  _326
REMARK  136  A    between atoms: _326  and  _327
REMARK  137  A    between atoms: _326  and  _329
REMARK  138  A    between atoms: _329  and  _330
REMARK  139  A    between atoms: _330  and  _331
REMARK  140  A    between atoms: _331  and  _332
REMARK  141  A    between atoms: _332  and  _333
REMARK  142  A    between atoms: _337  and  _339
REMARK  143  A    between atoms: _339  and  _340
REMARK  144  A    between atoms: _342  and  _344
REMARK  145  A    between atoms: _344  and  _345
REMARK  146  A    between atoms: _344  and  _347
REMARK  147  A    between atoms: _347  and  _348
REMARK  148  A    between atoms: _351  and  _353
REMARK  149  A    between atoms: _353  and  _354
REMARK  150  A    between atoms: _353  and  _356
REMARK  151  A    between atoms: _356  and  _357
REMARK  152  A    between atoms: _359  and  _361
REMARK  153  A    between atoms: _361  and  _362
REMARK  154  A    between atoms: _364  and  _366
REMARK  155  A    between atoms: _366  and  _367
REMARK  156  A    between atoms: _369  and  _371
REMARK  157  A    between atoms: _371  and  _372
REMARK  158  A    between atoms: _371  and  _374
REMARK  159  A    between atoms: _374  and  _375
REMARK  160  A    between atoms: _378  and  _380
REMARK  161  A    between atoms: _380  and  _381
REMARK  162  A    between atoms: _380  and  _383
REMARK  163  A    between atoms: _383  and  _384
REMARK  164  A    between atoms: _387  and  _389
REMARK  165  A    between atoms: _389  and  _390
REMARK  166  A    between atoms: _389  and  _392
REMARK  167  A    between atoms: _392  and  _393
REMARK  168  A    between atoms: _395  and  _397
REMARK  169  A    between atoms: _397  and  _398
REMARK  170  A    between atoms: _397  and  _400
REMARK  171  A    between atoms: _400  and  _401
REMARK  172  A    between atoms: _411  and  _413
REMARK  173  A    between atoms: _413  and  _414
REMARK  174  A    between atoms: _416  and  _418
REMARK  175  A    between atoms: _418  and  _419
REMARK  176  A    between atoms: _418  and  _421
REMARK  177  A    between atoms: _421  and  _422
REMARK  178  A    between atoms: _422  and  _423
REMARK  179  A    between atoms: _426  and  _428
REMARK  180  A    between atoms: _428  and  _429
REMARK  181  A    between atoms: _431  and  _433
REMARK  182  A    between atoms: _433  and  _434
REMARK  183  A    between atoms: _433  and  _436
REMARK  184  A    between atoms: _436  and  _437
REMARK  185  A    between atoms: _438  and  _440
REMARK  186  A    between atoms: _440  and  _441
REMARK  187  A    between atoms: _444  and  _446
REMARK  188  A    between atoms: _446  and  _447
REMARK  189  A    between atoms: _446  and  _449
REMARK  190  A    between atoms: _449  and  _450
REMARK  191  A    between atoms: _450  and  _451
REMARK  192  A    between atoms: _456  and  _458
REMARK  193  A    between atoms: _458  and  _459
REMARK  194  A    between atoms: _458  and  _461
REMARK  195  A    between atoms: _461  and  _462
REMARK  196  A    between atoms: _462  and  _463
REMARK  197  A    between atoms: _463  and  _464
REMARK  198  A    between atoms: _474  and  _475
REMARK  199  A    between atoms: _480  and  _482
REMARK  200  A    between atoms: _482  and  _483
REMARK  201  A    between atoms: _485  and  _487
REMARK  202  A    between atoms: _487  and  _488
REMARK  203  A    between atoms: _487  and  _490
REMARK  204  A    between atoms: _493  and  _495
REMARK  205  A    between atoms: _495  and  _496
REMARK  206  A    between atoms: _495  and  _498
REMARK  207  A    between atoms: _498  and  _499
REMARK  208  A    between atoms: _504  and  _505
REMARK  209  A    between atoms: _507  and  _509
REMARK  210  A    between atoms: _509  and  _510
REMARK  211  A    between atoms: _509  and  _512
REMARK  212  A    between atoms: _512  and  _513
REMARK                            x       y       z     vdW  Elec       q    Type
REMARK                         _______ _______ _______ _____ _____    ______ ____
ROOT
ATOM      1  CA  LYS A   1      45.839  -9.372  27.885  0.00  0.00    +0.145 C 
ENDROOT
BRANCH   1   2
ATOM      2  C   LYS A   1      45.906 -10.688  27.133  0.00  0.00    +0.238 C 
ATOM      3  O   LYS A   1      46.326 -11.686  27.718  0.00  0.00    -0.274 OA
ATOM      4  N   LEU A   2      45.477 -10.714  25.848  0.00  0.00    -0.298 N 
ATOM      5  H   LEU A   2      45.182  -9.826  25.394  0.00  0.00    +0.150 HD
BRANCH   4   6
ATOM      6  CA  LEU A   2      45.419 -11.961  25.083  0.00  0.00    +0.137 C 
BRANCH   6   7
ATOM      7  C   LEU A   2      46.721 -12.770  25.118  0.00  0.00    +0.227 C 
ATOM      8  O   LEU A   2      46.651 -13.982  25.316  0.00  0.00    -0.286 OA
ENDBRANCH   6   7
BRANCH   6   9
ATOM      9  CB  LEU A   2      44.914 -11.768  23.638  0.00  0.00    +0.028 C 
BRANCH   9  10
ATOM     10  CG  LEU A   2      44.289 -13.016  22.962  0.00  0.00    +0.002 C 
ATOM     11  CD2 LEU A   2      43.111 -13.592  23.752  0.00  0.00    +0.000 C 
ATOM     12  CD1 LEU A   2      43.834 -12.711  21.545  0.00  0.00    +0.000 C 
ENDBRANCH   9  10
ENDBRANCH   6   9
ENDBRANCH   4   6
ENDBRANCH   1   2
BRANCH   1  13
ATOM     13  N   LYS A   1      45.876  -9.661  29.330  0.00  0.00    -0.238 NA
ATOM     14  H   LYS A   1      46.214 -10.605  29.605  0.00  0.00    +0.142 HD
ENDBRANCH   1  13
BRANCH   1  15
ATOM     15  CB  LYS A   1      46.939  -8.378  27.438  0.00  0.00    +0.026 C 
BRANCH  15  16
ATOM     16  CG  LYS A   1      48.371  -8.778  27.789  0.00  0.00    -0.000 C 
BRANCH  16  17
ATOM     17  CD  LYS A   1      49.353  -7.694  27.388  0.00  0.00    -0.024 C 
BRANCH  17  18
ATOM     18  CE  LYS A   1      50.755  -8.203  27.140  0.00  0.00    -0.086 C 
BRANCH  18  19
ATOM     19  NZ  LYS A   1      51.430  -8.666  28.383  0.00  0.00    +0.380 N 
ATOM     20  HZ1 LYS A   1      51.493  -7.876  29.057  0.00  0.00    -0.089 HD
ATOM     21  HZ2 LYS A   1      50.881  -9.441  28.806  0.00  0.00    -0.089 HD
ATOM     22  HZ3 LYS A   1      52.386  -9.003  28.152  0.00  0.00    -0.089 HD
ENDBRANCH  18  19
ENDBRANCH  17  18
ENDBRANCH  16  17
ENDBRANCH  15  16
ENDBRANCH   1  15
TORSDOF 11
REMARK  Name = ../refined-set-2016/5e2o/5e2o_pocket.pdb
REMARK  212 active torsions:
REMARK  status: ('A' for Active; 'I' for Inactive)
REMARK    1  A    between atoms: _1  and  _5
REMARK    2  A    between atoms: _5  and  _6
REMARK    3  A    between atoms: _5  and  _8
REMARK    4  A    between atoms: _8  and  _9
REMARK    5  A    between atoms: _12  and  _14
REMARK    6  A    between atoms: _14  and  _15
REMARK    7  A    between atoms: _14  and  _17
REMARK    8  A    between atoms: _20  and  _22
REMARK    9  A    between atoms: _22  and  _23
REMARK   10  A    between atoms: _22  and  _25
REMARK   11  A    between atoms: _25  and  _26
REMARK   12  A    between atoms: _29  and  _31
REMARK   13  A    between atoms: _31  and  _32
REMARK   14  A    between atoms: _31  and  _34
REMARK   15  A    between atoms: _34  and  _35
REMARK   16  A    between atoms: _35  and  _36
REMARK   17  A    between atoms: _36  and  _37
REMARK   18  A    between atoms: _46  and  _48
REMARK   19  A    between atoms: _48  and  _49
REMARK   20  A    between atoms: _48  and  _51
REMARK   21  A    between atoms: _51  and  _52
REMARK   22  A    between atoms: _57  and  _59
REMARK   23  A    between atoms: _59  and  _60
REMARK   24  A    between atoms: _59  and  _62
REMARK   25  A    between atoms: _62  and  _63
REMARK   26  A    between atoms: _66  and  _68
REMARK   27  A    between atoms: _68  and  _69
REMARK   28  A    between atoms: _68  and  _71
REMARK   29  A    between atoms: _71  and  _72
REMARK   30  A    between atoms: _72  and  _107
REMARK   31  A    between atoms: _73  and  _75
REMARK   32  A    between atoms: _75  and  _76
REMARK   33  A    between atoms: _78  and  _80
REMARK   34  A    between atoms: _80  and  _81
REMARK   35  A    between atoms: _84  and  _86
REMARK   36  A    between atoms: _86  and  _87
REMARK   37  A    between atoms: _90  and  _92
REMARK   38  A    between atoms: _92  and  _93
REMARK   39  A    between atoms: _92  and  _95
REMARK   40  A    between atoms: _95  and  _96
REMARK   41  A    between atoms: _101  and  _103
REMARK   42  A    between atoms: _103  and  _104
REMARK   43  A    between atoms: _103  and  _106
REMARK   44  A    between atoms: _106  and  _107
REMARK   45  A    between atoms: _108  and  _110
REMARK   46  A    between atoms: _110  and  _111
REMARK   47  A    between atoms: _110  and  _113
REMARK   48  A    between atoms: _113  and  _114
REMARK   49  A    between atoms: _120  and  _122
REMARK   50  A    between atoms: _122  and  _123
REMARK   51  A    between atoms: _122  and  _125
REMARK   52  A    between atoms: _125  and  _126
REMARK   53  A    between atoms: _131  and  _132
REMARK   54  A    between atoms: _134  and  _136
REMARK   55  A    between atoms: _136  and  _137
REMARK   56  A    between atoms: _136  and  _139
REMARK   57  A    between atoms: _142  and  _144
REMARK   58  A    between atoms: _144  and  _145
REMARK   59  A    between atoms: _148  and  _150
REMARK   60  A    between atoms: _150  and  _151
REMARK   61  A    between atoms: _150  and  _153
REMARK   62  A    between atoms: _153  and  _154
REMARK   63  A    between atoms: _157  and  _159
REMARK   64  A    between atoms: _159  and  _160
REMARK   65  A    between atoms: _159  and  _162
REMARK   66  A    between atoms: _165  and  _167
REMARK   67  A    between atoms: _167  and  _168
REMARK   68  A    between atoms: _167  and  _170
REMARK   69  A    between atoms: _170  and  _171
REMARK   70  A    between atoms: _181  and  _183
REMARK   71  A    between atoms: _183  and  _184
REMARK   72  A    between atoms: _186  and  _188
REMARK   73  A    between atoms: _188  and  _189
REMARK   74  A    between atoms: _188  and  _191
REMARK   75  A    between atoms: _191  and  _192
REMARK   76  A    between atoms: _197  and  _198
REMARK   77  A    between atoms: _200  and  _202
REMARK   78  A    between atoms: _202  and  _203
REMARK   79  A    between atoms: _202  and  _205
REMARK   80  A    between atoms: _205  and  _206
REMARK   81  A    between atoms: _206  and  _207
REMARK   82  A    between atoms: _207  and  _208
REMARK   83  A    between atoms: _208  and  _209
REMARK   84  A    between atoms: _213  and  _215
REMARK   85  A    between atoms: _215  and  _216
REMARK   86  A    between atoms: _215  and  _218
REMARK   87  A    between atoms: _218  and  _219
REMARK   88  A    between atoms: _222  and  _224
REMARK   89  A    between atoms: _224  and  _225
REMARK   90  A    between atoms: _224  and  _227
REMARK   91  A    between atoms: _227  and  _228
REMARK   92  A    between atoms: _231  and  _233
REMARK   93  A    between atoms: _233  and  _234
REMARK   94  A    between atoms: _233  and  _236
REMARK   95  A    between atoms: _236  and  _237
REMARK   96  A    between atoms: _237  and  _238
REMARK   97  A    between atoms: _238  and  _239
REMARK   98  A    between atoms: _239  and  _240
REMARK   99  A    between atoms: _244  and  _246
REMARK  100  A    between atoms: _246  and  _247
REMARK  101  A    between atoms: _246  and  _249
REMARK  102  A    between atoms: _249  and  _250
REMARK  103  A    between atoms: _253  and  _255
REMARK  104  A    between atoms: _255  and  _256
REMARK  105  A    between atoms: _255  and  _258
REMARK  106  A    between atoms: _258  and  _259
REMARK  107  A    between atoms: _264  and  _265
REMARK  108  A    between atoms: _267  and  _269
REMARK  109  A    between atoms: _269  and  _270
REMARK  110  A    between atoms: _269  and  _272
REMARK  111  A    between atoms: _272  and  _273
REMARK  112  A    between atoms: _276  and  _278
REMARK  113  A    between atoms: _278  and  _279
REMARK  114  A    between atoms: _278  and  _281
REMARK  115  A    between atoms: _283  and  _285
REMARK  116  A    between atoms: _285  and  _286
REMARK  117  A    between atoms: _289  and  _291
REMARK  118  A    between atoms: _291  and  _292
REMARK  119  A    between atoms: _291  and  _294
REMARK  120  A    between atoms: _294  and  _295
REMARK  121  A    between atoms: _295  and  _296
REMARK  122  A    between atoms: _296  and  _297
REMARK  123  A    between atoms: _297  and  _298
REMARK  124  A    between atoms: _302  and  _304
REMARK  125  A    between atoms: _304  and  _305
REMARK  126  A    between atoms: _304  and  _307
REMARK  127  A    between atoms: _307  and  _308
REMARK  128  A    between atoms: _311  and  _313
REMARK  129  A    between atoms: _313  and  _314
REMARK  130  A    between atoms: _317  and  _319
REMARK  131  A    between atoms: _319  and  _320
REMARK  132  A    between atoms: _319  and  _322
REMARK  133  A    between atoms: _322  and  _323
REMARK  134  A    between atoms: _323  and  _437
REMARK  135  A    between atoms: _324  and  _326
REMARK  136  A    between atoms: _326  and  _327
REMARK  137  A    between atoms: _326  and  _329
REMARK  138  A    between atoms: _329  and  _330
REMARK  139  A    between atoms: _330  and  _331
REMARK  140  A    between atoms: _331  and  _332
REMARK  141  A    between atoms: _332  and  _333
REMARK  142  A    between atoms: _337  and  _339
REMARK  143  A    between atoms: _339  and  _340
REMARK  144  A    between atoms: _342  and  _344
REMARK  145  A    between atoms: _344  and  _345
REMARK  146  A    between atoms: _344  and  _347
REMARK  147  A    between atoms: _347  and  _348
REMARK  148  A    between atoms: _351  and  _353
REMARK  149  A    between atoms: _353  and  _354
REMARK  150  A    between atoms: _353  and  _356
REMARK  151  A    between atoms: _356  and  _357
REMARK  152  A    between atoms: _359  and  _361
REMARK  153  A    between atoms: _361  and  _362
REMARK  154  A    between atoms: _364  and  _366
REMARK  155  A    between atoms: _366  and  _367
REMARK  156  A    between atoms: _369  and  _371
REMARK  157  A    between atoms: _371  and  _372
REMARK  158  A    between atoms: _371  and  _374
REMARK  159  A    between atoms: _374  and  _375
REMARK  160  A    between atoms: _378  and  _380
REMARK  161  A    between atoms: _380  and  _381
REMARK  162  A    between atoms: _380  and  _383
REMARK  163  A    between atoms: _383  and  _384
REMARK  164  A    between atoms: _387  and  _389
REMARK  165  A    between atoms: _389  and  _390
REMARK  166  A    between atoms: _389  and  _392
REMARK  167  A    between atoms: _392  and  _393
REMARK  168  A    between atoms: _395  and  _397
REMARK  169  A    between atoms: _397  and  _398
REMARK  170  A    between atoms: _397  and  _400
REMARK  171  A    between atoms: _400  and  _401
REMARK  172  A    between atoms: _411  and  _413
REMARK  173  A    between atoms: _413  and  _414
REMARK  174  A    between atoms: _416  and  _418
REMARK  175  A    between atoms: _418  and  _419
REMARK  176  A    between atoms: _418  and  _421
REMARK  177  A    between atoms: _421  and  _422
REMARK  178  A    between atoms: _422  and  _423
REMARK  179  A    between atoms: _426  and  _428
REMARK  180  A    between atoms: _428  and  _429
REMARK  181  A    between atoms: _431  and  _433
REMARK  182  A    between atoms: _433  and  _434
REMARK  183  A    between atoms: _433  and  _436
REMARK  184  A    between atoms: _436  and  _437
REMARK  185  A    between atoms: _438  and  _440
REMARK  186  A    between atoms: _440  and  _441
REMARK  187  A    between atoms: _444  and  _446
REMARK  188  A    between atoms: _446  and  _447
REMARK  189  A    between atoms: _446  and  _449
REMARK  190  A    between atoms: _449  and  _450
REMARK  191  A    between atoms: _450  and  _451
REMARK  192  A    between atoms: _456  and  _458
REMARK  193  A    between atoms: _458  and  _459
REMARK  194  A    between atoms: _458  and  _461
REMARK  195  A    between atoms: _461  and  _462
REMARK  196  A    between atoms: _462  and  _463
REMARK  197  A    between atoms: _463  and  _464
REMARK  198  A    between atoms: _474  and  _475
REMARK  199  A    between atoms: _480  and  _482
REMARK  200  A    between atoms: _482  and  _483
REMARK  201  A    between atoms: _485  and  _487
REMARK  202  A    between atoms: _487  and  _488
REMARK  203  A    between atoms: _487  and  _490
REMARK  204  A    between atoms: _493  and  _495
REMARK  205  A    between atoms: _495  and  _496
REMARK  206  A    between atoms: _495  and  _498
REMARK  207  A    between atoms: _498  and  _499
REMARK  208  A    between atoms: _504  and  _505
REMARK  209  A    between atoms: _507  and  _509
REMARK  210  A    between atoms: _509  and  _510
REMARK  211  A    between atoms: _509  and  _512
REMARK  212  A    between atoms: _512  and  _513
REMARK                            x       y       z     vdW  Elec       q    Type
REMARK                         _______ _______ _______ _____ _____    ______ ____
ROOT
ATOM      1  CA  LYS A   2      50.319 -15.669  31.561  0.00  0.00    +0.149 C 
ENDROOT
BRANCH   1   3
ATOM      2  C   ASP A   1      50.356 -14.461  29.430  0.00  0.00    +0.239 C 
ATOM      3  N   LYS A   2      50.131 -14.491  30.742  0.00  0.00    -0.297 N 
ATOM      4  H   LYS A   2      49.802 -13.619  31.204  0.00  0.00    +0.150 HD
ATOM      5  O   ASP A   1      50.744 -15.443  28.799  0.00  0.00    -0.274 OA
BRANCH   2   6
ATOM      6  CA  ASP A   1      50.124 -13.130  28.727  0.00  0.00    +0.156 C 
BRANCH   6   7
ATOM      7  N   ASP A   1      49.646 -13.384  27.370  0.00  0.00    -0.238 NA
ATOM      8  H   ASP A   1      49.182 -14.292  27.167  0.00  0.00    +0.142 HD
ENDBRANCH   6   7
BRANCH   6   9
ATOM      9  CB  ASP A   1      49.098 -12.240  29.478  0.00  0.00    +0.140 C 
BRANCH   9  10
ATOM     10  CG  ASP A   1      49.590 -11.511  30.719  0.00  0.00    +0.367 C 
ATOM     11  OD2 ASP A   1      48.753 -11.216  31.604  0.00  0.00    -0.246 OA
ATOM     12  OD1 ASP A   1      50.802 -11.205  30.792  0.00  0.00    -0.246 OA
ENDBRANCH   9  10
ENDBRANCH   6   9
ENDBRANCH   2   6
ENDBRANCH   1   3
BRANCH   1  13
ATOM     13  C   LYS A   2      49.396 -15.572  32.771  0.00  0.00    +0.241 C 
ATOM     14  N   ILE A   3      49.163 -16.704  33.434  0.00  0.00    -0.298 N 
ATOM     15  H   ILE A   3      49.573 -17.577  33.045  0.00  0.00    +0.150 HD
ATOM     16  O   LYS A   2      48.893 -14.493  33.079  0.00  0.00    -0.273 OA
BRANCH  14  17
ATOM     17  CA  ILE A   3      48.376 -16.821  34.668  0.00  0.00    +0.137 C 
BRANCH  17  18
ATOM     18  C   ILE A   3      48.971 -15.866  35.705  0.00  0.00    +0.227 C 
ATOM     19  O   ILE A   3      50.190 -15.781  35.825  0.00  0.00    -0.286 OA
ENDBRANCH  17  18
BRANCH  17  20
ATOM     20  CB  ILE A   3      48.363 -18.320  35.141  0.00  0.00    +0.026 C 
ATOM     21  CG2 ILE A   3      47.778 -18.513  36.562  0.00  0.00    +0.002 C 
BRANCH  20  22
ATOM     22  CG1 ILE A   3      47.619 -19.203  34.110  0.00  0.00    +0.002 C 
ATOM     23  CD1 ILE A   3      46.204 -18.624  33.602  0.00  0.00    +0.000 C 
ENDBRANCH  20  22
ENDBRANCH  17  20
ENDBRANCH  14  17
ENDBRANCH   1  13
BRANCH   1  24
ATOM     24  CB  LYS A   2      51.802 -15.780  31.995  0.00  0.00    +0.029 C 
BRANCH  24  25
ATOM     25  CG  LYS A   2      52.332 -14.610  32.815  0.00  0.00    +0.000 C 
BRANCH  25  26
ATOM     26  CD  LYS A   2      53.608 -15.011  33.546  0.00  0.00    -0.024 C 
BRANCH  26  27
ATOM     27  CE  LYS A   2      54.828 -14.241  33.094  0.00  0.00    -0.086 C 
BRANCH  27  28
ATOM     28  NZ  LYS A   2      54.837 -12.843  33.607  0.00  0.00    +0.380 N 
ATOM     29  HZ1 LYS A   2      54.831 -12.857  34.647  0.00  0.00    -0.089 HD
ATOM     30  HZ2 LYS A   2      55.692 -12.357  33.270  0.00  0.00    -0.089 HD
ATOM     31  HZ3 LYS A   2      53.993 -12.343  33.261  0.00  0.00    -0.089 HD
ENDBRANCH  27  28
ENDBRANCH  26  27
ENDBRANCH  25  26
ENDBRANCH  24  25
ENDBRANCH   1  24
TORSDOF 15
REMARK  Name = ../refined-set-2016/5e2o/5e2o_pocket.pdb
REMARK  212 active torsions:
REMARK  status: ('A' for Active; 'I' for Inactive)
REMARK    1  A    between atoms: _1  and  _5
REMARK    2  A    between atoms: _5  and  _6
REMARK    3  A    between atoms: _5  and  _8
REMARK    4  A    between atoms: _8  and  _9
REMARK    5  A    between atoms: _12  and  _14
REMARK    6  A    between atoms: _14  and  _15
REMARK    7  A    between atoms: _14  and  _17
REMARK    8  A    between atoms: _20  and  _22
REMARK    9  A    between atoms: _22  and  _23
REMARK   10  A    between atoms: _22  and  _25
REMARK   11  A    between atoms: _25  and  _26
REMARK   12  A    between atoms: _29  and  _31
REMARK   13  A    between atoms: _31  and  _32
REMARK   14  A    between atoms: _31  and  _34
REMARK   15  A    between atoms: _34  and  _35
REMARK   16  A    between atoms: _35  and  _36
REMARK   17  A    between atoms: _36  and  _37
REMARK   18  A    between atoms: _46  and  _48
REMARK   19  A    between atoms: _48  and  _49
REMARK   20  A    between atoms: _48  and  _51
REMARK   21  A    between atoms: _51  and  _52
REMARK   22  A    between atoms: _57  and  _59
REMARK   23  A    between atoms: _59  and  _60
REMARK   24  A    between atoms: _59  and  _62
REMARK   25  A    between atoms: _62  and  _63
REMARK   26  A    between atoms: _66  and  _68
REMARK   27  A    between atoms: _68  and  _69
REMARK   28  A    between atoms: _68  and  _71
REMARK   29  A    between atoms: _71  and  _72
REMARK   30  A    between atoms: _72  and  _107
REMARK   31  A    between atoms: _73  and  _75
REMARK   32  A    between atoms: _75  and  _76
REMARK   33  A    between atoms: _78  and  _80
REMARK   34  A    between atoms: _80  and  _81
REMARK   35  A    between atoms: _84  and  _86
REMARK   36  A    between atoms: _86  and  _87
REMARK   37  A    between atoms: _90  and  _92
REMARK   38  A    between atoms: _92  and  _93
REMARK   39  A    between atoms: _92  and  _95
REMARK   40  A    between atoms: _95  and  _96
REMARK   41  A    between atoms: _101  and  _103
REMARK   42  A    between atoms: _103  and  _104
REMARK   43  A    between atoms: _103  and  _106
REMARK   44  A    between atoms: _106  and  _107
REMARK   45  A    between atoms: _108  and  _110
REMARK   46  A    between atoms: _110  and  _111
REMARK   47  A    between atoms: _110  and  _113
REMARK   48  A    between atoms: _113  and  _114
REMARK   49  A    between atoms: _120  and  _122
REMARK   50  A    between atoms: _122  and  _123
REMARK   51  A    between atoms: _122  and  _125
REMARK   52  A    between atoms: _125  and  _126
REMARK   53  A    between atoms: _131  and  _132
REMARK   54  A    between atoms: _134  and  _136
REMARK   55  A    between atoms: _136  and  _137
REMARK   56  A    between atoms: _136  and  _139
REMARK   57  A    between atoms: _142  and  _144
REMARK   58  A    between atoms: _144  and  _145
REMARK   59  A    between atoms: _148  and  _150
REMARK   60  A    between atoms: _150  and  _151
REMARK   61  A    between atoms: _150  and  _153
REMARK   62  A    between atoms: _153  and  _154
REMARK   63  A    between atoms: _157  and  _159
REMARK   64  A    between atoms: _159  and  _160
REMARK   65  A    between atoms: _159  and  _162
REMARK   66  A    between atoms: _165  and  _167
REMARK   67  A    between atoms: _167  and  _168
REMARK   68  A    between atoms: _167  and  _170
REMARK   69  A    between atoms: _170  and  _171
REMARK   70  A    between atoms: _181  and  _183
REMARK   71  A    between atoms: _183  and  _184
REMARK   72  A    between atoms: _186  and  _188
REMARK   73  A    between atoms: _188  and  _189
REMARK   74  A    between atoms: _188  and  _191
REMARK   75  A    between atoms: _191  and  _192
REMARK   76  A    between atoms: _197  and  _198
REMARK   77  A    between atoms: _200  and  _202
REMARK   78  A    between atoms: _202  and  _203
REMARK   79  A    between atoms: _202  and  _205
REMARK   80  A    between atoms: _205  and  _206
REMARK   81  A    between atoms: _206  and  _207
REMARK   82  A    between atoms: _207  and  _208
REMARK   83  A    between atoms: _208  and  _209
REMARK   84  A    between atoms: _213  and  _215
REMARK   85  A    between atoms: _215  and  _216
REMARK   86  A    between atoms: _215  and  _218
REMARK   87  A    between atoms: _218  and  _219
REMARK   88  A    between atoms: _222  and  _224
REMARK   89  A    between atoms: _224  and  _225
REMARK   90  A    between atoms: _224  and  _227
REMARK   91  A    between atoms: _227  and  _228
REMARK   92  A    between atoms: _231  and  _233
REMARK   93  A    between atoms: _233  and  _234
REMARK   94  A    between atoms: _233  and  _236
REMARK   95  A    between atoms: _236  and  _237
REMARK   96  A    between atoms: _237  and  _238
REMARK   97  A    between atoms: _238  and  _239
REMARK   98  A    between atoms: _239  and  _240
REMARK   99  A    between atoms: _244  and  _246
REMARK  100  A    between atoms: _246  and  _247
REMARK  101  A    between atoms: _246  and  _249
REMARK  102  A    between atoms: _249  and  _250
REMARK  103  A    between atoms: _253  and  _255
REMARK  104  A    between atoms: _255  and  _256
REMARK  105  A    between atoms: _255  and  _258
REMARK  106  A    between atoms: _258  and  _259
REMARK  107  A    between atoms: _264  and  _265
REMARK  108  A    between atoms: _267  and  _269
REMARK  109  A    between atoms: _269  and  _270
REMARK  110  A    between atoms: _269  and  _272
REMARK  111  A    between atoms: _272  and  _273
REMARK  112  A    between atoms: _276  and  _278
REMARK  113  A    between atoms: _278  and  _279
REMARK  114  A    between atoms: _278  and  _281
REMARK  115  A    between atoms: _283  and  _285
REMARK  116  A    between atoms: _285  and  _286
REMARK  117  A    between atoms: _289  and  _291
REMARK  118  A    between atoms: _291  and  _292
REMARK  119  A    between atoms: _291  and  _294
REMARK  120  A    between atoms: _294  and  _295
REMARK  121  A    between atoms: _295  and  _296
REMARK  122  A    between atoms: _296  and  _297
REMARK  123  A    between atoms: _297  and  _298
REMARK  124  A    between atoms: _302  and  _304
REMARK  125  A    between atoms: _304  and  _305
REMARK  126  A    between atoms: _304  and  _307
REMARK  127  A    between atoms: _307  and  _308
REMARK  128  A    between atoms: _311  and  _313
REMARK  129  A    between atoms: _313  and  _314
REMARK  130  A    between atoms: _317  and  _319
REMARK  131  A    between atoms: _319  and  _320
REMARK  132  A    between atoms: _319  and  _322
REMARK  133  A    between atoms: _322  and  _323
REMARK  134  A    between atoms: _323  and  _437
REMARK  135  A    between atoms: _324  and  _326
REMARK  136  A    between atoms: _326  and  _327
REMARK  137  A    between atoms: _326  and  _329
REMARK  138  A    between atoms: _329  and  _330
REMARK  139  A    between atoms: _330  and  _331
REMARK  140  A    between atoms: _331  and  _332
REMARK  141  A    between atoms: _332  and  _333
REMARK  142  A    between atoms: _337  and  _339
REMARK  143  A    between atoms: _339  and  _340
REMARK  144  A    between atoms: _342  and  _344
REMARK  145  A    between atoms: _344  and  _345
REMARK  146  A    between atoms: _344  and  _347
REMARK  147  A    between atoms: _347  and  _348
REMARK  148  A    between atoms: _351  and  _353
REMARK  149  A    between atoms: _353  and  _354
REMARK  150  A    between atoms: _353  and  _356
REMARK  151  A    between atoms: _356  and  _357
REMARK  152  A    between atoms: _359  and  _361
REMARK  153  A    between atoms: _361  and  _362
REMARK  154  A    between atoms: _364  and  _366
REMARK  155  A    between atoms: _366  and  _367
REMARK  156  A    between atoms: _369  and  _371
REMARK  157  A    between atoms: _371  and  _372
REMARK  158  A    between atoms: _371  and  _374
REMARK  159  A    between atoms: _374  and  _375
REMARK  160  A    between atoms: _378  and  _380
REMARK  161  A    between atoms: _380  and  _381
REMARK  162  A    between atoms: _380  and  _383
REMARK  163  A    between atoms: _383  and  _384
REMARK  164  A    between atoms: _387  and  _389
REMARK  165  A    between atoms: _389  and  _390
REMARK  166  A    between atoms: _389  and  _392
REMARK  167  A    between atoms: _392  and  _393
REMARK  168  A    between atoms: _395  and  _397
REMARK  169  A    between atoms: _397  and  _398
REMARK  170  A    between atoms: _397  and  _400
REMARK  171  A    between atoms: _400  and  _401
REMARK  172  A    between atoms: _411  and  _413
REMARK  173  A    between atoms: _413  and  _414
REMARK  174  A    between atoms: _416  and  _418
REMARK  175  A    between atoms: _418  and  _419
REMARK  176  A    between atoms: _418  and  _421
REMARK  177  A    between atoms: _421  and  _422
REMARK  178  A    between atoms: _422  and  _423
REMARK  179  A    between atoms: _426  and  _428
REMARK  180  A    between atoms: _428  and  _429
REMARK  181  A    between atoms: _431  and  _433
REMARK  182  A    between atoms: _433  and  _434
REMARK  183  A    between atoms: _433  and  _436
REMARK  184  A    between atoms: _436  and  _437
REMARK  185  A    between atoms: _438  and  _440
REMARK  186  A    between atoms: _440  and  _441
REMARK  187  A    between atoms: _444  and  _446
REMARK  188  A    between atoms: _446  and  _447
REMARK  189  A    between atoms: _446  and  _449
REMARK  190  A    between atoms: _449  and  _450
REMARK  191  A    between atoms: _450  and  _451
REMARK  192  A    between atoms: _456  and  _458
REMARK  193  A    between atoms: _458  and  _459
REMARK  194  A    between atoms: _458  and  _461
REMARK  195  A    between atoms: _461  and  _462
REMARK  196  A    between atoms: _462  and  _463
REMARK  197  A    between atoms: _463  and  _464
REMARK  198  A    between atoms: _474  and  _475
REMARK  199  A    between atoms: _480  and  _482
REMARK  200  A    between atoms: _482  and  _483
REMARK  201  A    between atoms: _485  and  _487
REMARK  202  A    between atoms: _487  and  _488
REMARK  203  A    between atoms: _487  and  _490
REMARK  204  A    between atoms: _493  and  _495
REMARK  205  A    between atoms: _495  and  _496
REMARK  206  A    between atoms: _495  and  _498
REMARK  207  A    between atoms: _498  and  _499
REMARK  208  A    between atoms: _504  and  _505
REMARK  209  A    between atoms: _507  and  _509
REMARK  210  A    between atoms: _509  and  _510
REMARK  211  A    between atoms: _509  and  _512
REMARK  212  A    between atoms: _512  and  _513
REMARK                            x       y       z     vdW  Elec       q    Type
REMARK                         _______ _______ _______ _____ _____    ______ ____
ROOT
ATOM      1  CG  TYR A   1      29.004 -12.263  20.500  0.00  0.00    -0.020 A 
ATOM      2  CD2 TYR A   1      28.832 -11.575  21.699  0.00  0.00    -0.001 A 
ATOM      3  CE2 TYR A   1      29.905 -11.361  22.572  0.00  0.00    +0.036 A 
ATOM      4  CZ  TYR A   1      31.177 -11.772  22.208  0.00  0.00    +0.134 A 
ATOM      5  CE1 TYR A   1      31.375 -12.437  21.006  0.00  0.00    +0.036 A 
ATOM      6  CD1 TYR A   1      30.291 -12.688  20.167  0.00  0.00    -0.001 A 
ENDROOT
BRANCH   4   7
ATOM      7  OH  TYR A   1      32.253 -11.541  23.023  0.00  0.00    -0.506 OA
ATOM      8  HH  TYR A   1      32.107 -11.987  23.895  0.00  0.00    +0.292 HD
ENDBRANCH   4   7
BRANCH   1   9
ATOM      9  CB  TYR A   1      27.835 -12.510  19.566  0.00  0.00    +0.051 C 
BRANCH   9  10
ATOM     10  CA  TYR A   1      27.832 -11.525  18.364  0.00  0.00    +0.137 C 
BRANCH  10  11
ATOM     11  N   TYR A   1      27.390 -10.207  18.794  0.00  0.00    -0.239 NA
ATOM     12  H   TYR A   1      26.394 -10.090  19.071  0.00  0.00    +0.142 HD
ENDBRANCH  10  11
BRANCH  10  13
ATOM     13  C   TYR A   1      27.042 -12.041  17.174  0.00  0.00    +0.224 C 
ATOM     14  O   TYR A   1      26.340 -13.049  17.265  0.00  0.00    -0.287 OA
ENDBRANCH  10  13
ENDBRANCH   9  10
ENDBRANCH   1   9
TORSDOF 5
REMARK  Name = ../refined-set-2016/5e2o/5e2o_pocket.pdb
REMARK  212 active torsions:
REMARK  status: ('A' for Active; 'I' for Inactive)
REMARK    1  A    between atoms: _1  and  _5
REMARK    2  A    between atoms: _5  and  _6
REMARK    3  A    between atoms: _5  and  _8
REMARK    4  A    between atoms: _8  and  _9
REMARK    5  A    between atoms: _12  and  _14
REMARK    6  A    between atoms: _14  and  _15
REMARK    7  A    between atoms: _14  and  _17
REMARK    8  A    between atoms: _20  and  _22
REMARK    9  A    between atoms: _22  and  _23
REMARK   10  A    between atoms: _22  and  _25
REMARK   11  A    between atoms: _25  and  _26
REMARK   12  A    between atoms: _29  and  _31
REMARK   13  A    between atoms: _31  and  _32
REMARK   14  A    between atoms: _31  and  _34
REMARK   15  A    between atoms: _34  and  _35
REMARK   16  A    between atoms: _35  and  _36
REMARK   17  A    between atoms: _36  and  _37
REMARK   18  A    between atoms: _46  and  _48
REMARK   19  A    between atoms: _48  and  _49
REMARK   20  A    between atoms: _48  and  _51
REMARK   21  A    between atoms: _51  and  _52
REMARK   22  A    between atoms: _57  and  _59
REMARK   23  A    between atoms: _59  and  _60
REMARK   24  A    between atoms: _59  and  _62
REMARK   25  A    between atoms: _62  and  _63
REMARK   26  A    between atoms: _66  and  _68
REMARK   27  A    between atoms: _68  and  _69
REMARK   28  A    between atoms: _68  and  _71
REMARK   29  A    between atoms: _71  and  _72
REMARK   30  A    between atoms: _72  and  _107
REMARK   31  A    between atoms: _73  and  _75
REMARK   32  A    between atoms: _75  and  _76
REMARK   33  A    between atoms: _78  and  _80
REMARK   34  A    between atoms: _80  and  _81
REMARK   35  A    between atoms: _84  and  _86
REMARK   36  A    between atoms: _86  and  _87
REMARK   37  A    between atoms: _90  and  _92
REMARK   38  A    between atoms: _92  and  _93
REMARK   39  A    between atoms: _92  and  _95
REMARK   40  A    between atoms: _95  and  _96
REMARK   41  A    between atoms: _101  and  _103
REMARK   42  A    between atoms: _103  and  _104
REMARK   43  A    between atoms: _103  and  _106
REMARK   44  A    between atoms: _106  and  _107
REMARK   45  A    between atoms: _108  and  _110
REMARK   46  A    between atoms: _110  and  _111
REMARK   47  A    between atoms: _110  and  _113
REMARK   48  A    between atoms: _113  and  _114
REMARK   49  A    between atoms: _120  and  _122
REMARK   50  A    between atoms: _122  and  _123
REMARK   51  A    between atoms: _122  and  _125
REMARK   52  A    between atoms: _125  and  _126
REMARK   53  A    between atoms: _131  and  _132
REMARK   54  A    between atoms: _134  and  _136
REMARK   55  A    between atoms: _136  and  _137
REMARK   56  A    between atoms: _136  and  _139
REMARK   57  A    between atoms: _142  and  _144
REMARK   58  A    between atoms: _144  and  _145
REMARK   59  A    between atoms: _148  and  _150
REMARK   60  A    between atoms: _150  and  _151
REMARK   61  A    between atoms: _150  and  _153
REMARK   62  A    between atoms: _153  and  _154
REMARK   63  A    between atoms: _157  and  _159
REMARK   64  A    between atoms: _159  and  _160
REMARK   65  A    between atoms: _159  and  _162
REMARK   66  A    between atoms: _165  and  _167
REMARK   67  A    between atoms: _167  and  _168
REMARK   68  A    between atoms: _167  and  _170
REMARK   69  A    between atoms: _170  and  _171
REMARK   70  A    between atoms: _181  and  _183
REMARK   71  A    between atoms: _183  and  _184
REMARK   72  A    between atoms: _186  and  _188
REMARK   73  A    between atoms: _188  and  _189
REMARK   74  A    between atoms: _188  and  _191
REMARK   75  A    between atoms: _191  and  _192
REMARK   76  A    between atoms: _197  and  _198
REMARK   77  A    between atoms: _200  and  _202
REMARK   78  A    between atoms: _202  and  _203
REMARK   79  A    between atoms: _202  and  _205
REMARK   80  A    between atoms: _205  and  _206
REMARK   81  A    between atoms: _206  and  _207
REMARK   82  A    between atoms: _207  and  _208
REMARK   83  A    between atoms: _208  and  _209
REMARK   84  A    between atoms: _213  and  _215
REMARK   85  A    between atoms: _215  and  _216
REMARK   86  A    between atoms: _215  and  _218
REMARK   87  A    between atoms: _218  and  _219
REMARK   88  A    between atoms: _222  and  _224
REMARK   89  A    between atoms: _224  and  _225
REMARK   90  A    between atoms: _224  and  _227
REMARK   91  A    between atoms: _227  and  _228
REMARK   92  A    between atoms: _231  and  _233
REMARK   93  A    between atoms: _233  and  _234
REMARK   94  A    between atoms: _233  and  _236
REMARK   95  A    between atoms: _236  and  _237
REMARK   96  A    between atoms: _237  and  _238
REMARK   97  A    between atoms: _238  and  _239
REMARK   98  A    between atoms: _239  and  _240
REMARK   99  A    between atoms: _244  and  _246
REMARK  100  A    between atoms: _246  and  _247
REMARK  101  A    between atoms: _246  and  _249
REMARK  102  A    between atoms: _249  and  _250
REMARK  103  A    between atoms: _253  and  _255
REMARK  104  A    between atoms: _255  and  _256
REMARK  105  A    between atoms: _255  and  _258
REMARK  106  A    between atoms: _258  and  _259
REMARK  107  A    between atoms: _264  and  _265
REMARK  108  A    between atoms: _267  and  _269
REMARK  109  A    between atoms: _269  and  _270
REMARK  110  A    between atoms: _269  and  _272
REMARK  111  A    between atoms: _272  and  _273
REMARK  112  A    between atoms: _276  and  _278
REMARK  113  A    between atoms: _278  and  _279
REMARK  114  A    between atoms: _278  and  _281
REMARK  115  A    between atoms: _283  and  _285
REMARK  116  A    between atoms: _285  and  _286
REMARK  117  A    between atoms: _289  and  _291
REMARK  118  A    between atoms: _291  and  _292
REMARK  119  A    between atoms: _291  and  _294
REMARK  120  A    between atoms: _294  and  _295
REMARK  121  A    between atoms: _295  and  _296
REMARK  122  A    between atoms: _296  and  _297
REMARK  123  A    between atoms: _297  and  _298
REMARK  124  A    between atoms: _302  and  _304
REMARK  125  A    between atoms: _304  and  _305
REMARK  126  A    between atoms: _304  and  _307
REMARK  127  A    between atoms: _307  and  _308
REMARK  128  A    between atoms: _311  and  _313
REMARK  129  A    between atoms: _313  and  _314
REMARK  130  A    between atoms: _317  and  _319
REMARK  131  A    between atoms: _319  and  _320
REMARK  132  A    between atoms: _319  and  _322
REMARK  133  A    between atoms: _322  and  _323
REMARK  134  A    between atoms: _323  and  _437
REMARK  135  A    between atoms: _324  and  _326
REMARK  136  A    between atoms: _326  and  _327
REMARK  137  A    between atoms: _326  and  _329
REMARK  138  A    between atoms: _329  and  _330
REMARK  139  A    between atoms: _330  and  _331
REMARK  140  A    between atoms: _331  and  _332
REMARK  141  A    between atoms: _332  and  _333
REMARK  142  A    between atoms: _337  and  _339
REMARK  143  A    between atoms: _339  and  _340
REMARK  144  A    between atoms: _342  and  _344
REMARK  145  A    between atoms: _344  and  _345
REMARK  146  A    between atoms: _344  and  _347
REMARK  147  A    between atoms: _347  and  _348
REMARK  148  A    between atoms: _351  and  _353
REMARK  149  A    between atoms: _353  and  _354
REMARK  150  A    between atoms: _353  and  _356
REMARK  151  A    between atoms: _356  and  _357
REMARK  152  A    between atoms: _359  and  _361
REMARK  153  A    between atoms: _361  and  _362
REMARK  154  A    between atoms: _364  and  _366
REMARK  155  A    between atoms: _366  and  _367
REMARK  156  A    between atoms: _369  and  _371
REMARK  157  A    between atoms: _371  and  _372
REMARK  158  A    between atoms: _371  and  _374
REMARK  159  A    between atoms: _374  and  _375
REMARK  160  A    between atoms: _378  and  _380
REMARK  161  A    between atoms: _380  and  _381
REMARK  162  A    between atoms: _380  and  _383
REMARK  163  A    between atoms: _383  and  _384
REMARK  164  A    between atoms: _387  and  _389
REMARK  165  A    between atoms: _389  and  _390
REMARK  166  A    between atoms: _389  and  _392
REMARK  167  A    between atoms: _392  and  _393
REMARK  168  A    between atoms: _395  and  _397
REMARK  169  A    between atoms: _397  and  _398
REMARK  170  A    between atoms: _397  and  _400
REMARK  171  A    between atoms: _400  and  _401
REMARK  172  A    between atoms: _411  and  _413
REMARK  173  A    between atoms: _413  and  _414
REMARK  174  A    between atoms: _416  and  _418
REMARK  175  A    between atoms: _418  and  _419
REMARK  176  A    between atoms: _418  and  _421
REMARK  177  A    between atoms: _421  and  _422
REMARK  178  A    between atoms: _422  and  _423
REMARK  179  A    between atoms: _426  and  _428
REMARK  180  A    between atoms: _428  and  _429
REMARK  181  A    between atoms: _431  and  _433
REMARK  182  A    between atoms: _433  and  _434
REMARK  183  A    between atoms: _433  and  _436
REMARK  184  A    between atoms: _436  and  _437
REMARK  185  A    between atoms: _438  and  _440
REMARK  186  A    between atoms: _440  and  _441
REMARK  187  A    between atoms: _444  and  _446
REMARK  188  A    between atoms: _446  and  _447
REMARK  189  A    between atoms: _446  and  _449
REMARK  190  A    between atoms: _449  and  _450
REMARK  191  A    between atoms: _450  and  _451
REMARK  192  A    between atoms: _456  and  _458
REMARK  193  A    between atoms: _458  and  _459
REMARK  194  A    between atoms: _458  and  _461
REMARK  195  A    between atoms: _461  and  _462
REMARK  196  A    between atoms: _462  and  _463
REMARK  197  A    between atoms: _463  and  _464
REMARK  198  A    between atoms: _474  and  _475
REMARK  199  A    between atoms: _480  and  _482
REMARK  200  A    between atoms: _482  and  _483
REMARK  201  A    between atoms: _485  and  _487
REMARK  202  A    between atoms: _487  and  _488
REMARK  203  A    between atoms: _487  and  _490
REMARK  204  A    between atoms: _493  and  _495
REMARK  205  A    between atoms: _495  and  _496
REMARK  206  A    between atoms: _495  and  _498
REMARK  207  A    between atoms: _498  and  _499
REMARK  208  A    between atoms: _504  and  _505
REMARK  209  A    between atoms: _507  and  _509
REMARK  210  A    between atoms: _509  and  _510
REMARK  211  A    between atoms: _509  and  _512
REMARK  212  A    between atoms: _512  and  _513
REMARK                            x       y       z     vdW  Elec       q    Type
REMARK                         _______ _______ _______ _____ _____    ______ ____
ROOT
ATOM      1  C   ILE A   1      25.635 -12.926  29.974  0.00  0.00    +0.238 C 
ATOM      2  O   ILE A   1      26.681 -13.546  30.156  0.00  0.00    -0.274 OA
ATOM      3  N   CYS A   2      25.579 -11.693  29.431  0.00  0.00    -0.297 N 
ATOM      4  H   CYS A   2      24.651 -11.236  29.327  0.00  0.00    +0.150 HD
ENDROOT
BRANCH   1   5
ATOM      5  CA  ILE A   1      24.315 -13.577  30.324  0.00  0.00    +0.145 C 
BRANCH   5   6
ATOM      6  N   ILE A   1      24.406 -14.955  29.839  0.00  0.00    -0.238 NA
ATOM      7  H   ILE A   1      25.295 -15.474  29.989  0.00  0.00    +0.142 HD
ENDBRANCH   5   6
BRANCH   5   8
ATOM      8  CB  ILE A   1      23.928 -13.464  31.820  0.00  0.00    +0.025 C 
ATOM      9  CG2 ILE A   1      25.011 -14.035  32.786  0.00  0.00    +0.002 C 
BRANCH   8  10
ATOM     10  CG1 ILE A   1      23.497 -12.002  32.187  0.00  0.00    +0.002 C 
ATOM     11  CD1 ILE A   1      22.806 -11.906  33.597  0.00  0.00    +0.000 C 
ENDBRANCH   8  10
ENDBRANCH   5   8
ENDBRANCH   1   5
BRANCH   3  12
ATOM     12  CA  CYS A   2      26.765 -10.975  28.984  0.00  0.00    +0.160 C 
BRANCH  12  13
ATOM     13  C   CYS A   2      27.068  -9.812  29.847  0.00  0.00    +0.242 C 
ATOM     14  O   CYS A   2      26.170  -9.267  30.488  0.00  0.00    -0.273 OA
ATOM     15  N   ALA A   3      28.339  -9.417  29.860  0.00  0.00    -0.298 N 
ATOM     16  H   ALA A   3      29.029  -9.934  29.279  0.00  0.00    +0.150 HD
BRANCH  15  17
ATOM     17  CA  ALA A   3      28.803  -8.283  30.661  0.00  0.00    +0.137 C 
ATOM     18  CB  ALA A   3      29.119  -8.727  32.107  0.00  0.00    +0.030 C 
BRANCH  17  19
ATOM     19  C   ALA A   3      30.032  -7.675  30.014  0.00  0.00    +0.227 C 
ATOM     20  O   ALA A   3      30.955  -8.374  29.572  0.00  0.00    -0.286 OA
ENDBRANCH  17  19
ENDBRANCH  15  17
ENDBRANCH  12  13
BRANCH  12  21
ATOM     21  CB  CYS A   2      26.627 -10.569  27.521  0.00  0.00    +0.098 C 
ATOM     22  SG  CYS A   2      26.013 -11.904  26.459  0.00  0.00    -0.080 S 
ENDBRANCH  12  21
ENDBRANCH   3  12
TORSDOF 9
REMARK  Name = ../refined-set-2016/5e2o/5e2o_pocket.pdb
REMARK  212 active torsions:
REMARK  status: ('A' for Active; 'I' for Inactive)
REMARK    1  A    between atoms: _1  and  _5
REMARK    2  A    between atoms: _5  and  _6
REMARK    3  A    between atoms: _5  and  _8
REMARK    4  A    between atoms: _8  and  _9
REMARK    5  A    between atoms: _12  and  _14
REMARK    6  A    between atoms: _14  and  _15
REMARK    7  A    between atoms: _14  and  _17
REMARK    8  A    between atoms: _20  and  _22
REMARK    9  A    between atoms: _22  and  _23
REMARK   10  A    between atoms: _22  and  _25
REMARK   11  A    between atoms: _25  and  _26
REMARK   12  A    between atoms: _29  and  _31
REMARK   13  A    between atoms: _31  and  _32
REMARK   14  A    between atoms: _31  and  _34
REMARK   15  A    between atoms: _34  and  _35
REMARK   16  A    between atoms: _35  and  _36
REMARK   17  A    between atoms: _36  and  _37
REMARK   18  A    between atoms: _46  and  _48
REMARK   19  A    between atoms: _48  and  _49
REMARK   20  A    between atoms: _48  and  _51
REMARK   21  A    between atoms: _51  and  _52
REMARK   22  A    between atoms: _57  and  _59
REMARK   23  A    between atoms: _59  and  _60
REMARK   24  A    between atoms: _59  and  _62
REMARK   25  A    between atoms: _62  and  _63
REMARK   26  A    between atoms: _66  and  _68
REMARK   27  A    between atoms: _68  and  _69
REMARK   28  A    between atoms: _68  and  _71
REMARK   29  A    between atoms: _71  and  _72
REMARK   30  A    between atoms: _72  and  _107
REMARK   31  A    between atoms: _73  and  _75
REMARK   32  A    between atoms: _75  and  _76
REMARK   33  A    between atoms: _78  and  _80
REMARK   34  A    between atoms: _80  and  _81
REMARK   35  A    between atoms: _84  and  _86
REMARK   36  A    between atoms: _86  and  _87
REMARK   37  A    between atoms: _90  and  _92
REMARK   38  A    between atoms: _92  and  _93
REMARK   39  A    between atoms: _92  and  _95
REMARK   40  A    between atoms: _95  and  _96
REMARK   41  A    between atoms: _101  and  _103
REMARK   42  A    between atoms: _103  and  _104
REMARK   43  A    between atoms: _103  and  _106
REMARK   44  A    between atoms: _106  and  _107
REMARK   45  A    between atoms: _108  and  _110
REMARK   46  A    between atoms: _110  and  _111
REMARK   47  A    between atoms: _110  and  _113
REMARK   48  A    between atoms: _113  and  _114
REMARK   49  A    between atoms: _120  and  _122
REMARK   50  A    between atoms: _122  and  _123
REMARK   51  A    between atoms: _122  and  _125
REMARK   52  A    between atoms: _125  and  _126
REMARK   53  A    between atoms: _131  and  _132
REMARK   54  A    between atoms: _134  and  _136
REMARK   55  A    between atoms: _136  and  _137
REMARK   56  A    between atoms: _136  and  _139
REMARK   57  A    between atoms: _142  and  _144
REMARK   58  A    between atoms: _144  and  _145
REMARK   59  A    between atoms: _148  and  _150
REMARK   60  A    between atoms: _150  and  _151
REMARK   61  A    between atoms: _150  and  _153
REMARK   62  A    between atoms: _153  and  _154
REMARK   63  A    between atoms: _157  and  _159
REMARK   64  A    between atoms: _159  and  _160
REMARK   65  A    between atoms: _159  and  _162
REMARK   66  A    between atoms: _165  and  _167
REMARK   67  A    between atoms: _167  and  _168
REMARK   68  A    between atoms: _167  and  _170
REMARK   69  A    between atoms: _170  and  _171
REMARK   70  A    between atoms: _181  and  _183
REMARK   71  A    between atoms: _183  and  _184
REMARK   72  A    between atoms: _186  and  _188
REMARK   73  A    between atoms: _188  and  _189
REMARK   74  A    between atoms: _188  and  _191
REMARK   75  A    between atoms: _191  and  _192
REMARK   76  A    between atoms: _197  and  _198
REMARK   77  A    between atoms: _200  and  _202
REMARK   78  A    between atoms: _202  and  _203
REMARK   79  A    between atoms: _202  and  _205
REMARK   80  A    between atoms: _205  and  _206
REMARK   81  A    between atoms: _206  and  _207
REMARK   82  A    between atoms: _207  and  _208
REMARK   83  A    between atoms: _208  and  _209
REMARK   84  A    between atoms: _213  and  _215
REMARK   85  A    between atoms: _215  and  _216
REMARK   86  A    between atoms: _215  and  _218
REMARK   87  A    between atoms: _218  and  _219
REMARK   88  A    between atoms: _222  and  _224
REMARK   89  A    between atoms: _224  and  _225
REMARK   90  A    between atoms: _224  and  _227
REMARK   91  A    between atoms: _227  and  _228
REMARK   92  A    between atoms: _231  and  _233
REMARK   93  A    between atoms: _233  and  _234
REMARK   94  A    between atoms: _233  and  _236
REMARK   95  A    between atoms: _236  and  _237
REMARK   96  A    between atoms: _237  and  _238
REMARK   97  A    between atoms: _238  and  _239
REMARK   98  A    between atoms: _239  and  _240
REMARK   99  A    between atoms: _244  and  _246
REMARK  100  A    between atoms: _246  and  _247
REMARK  101  A    between atoms: _246  and  _249
REMARK  102  A    between atoms: _249  and  _250
REMARK  103  A    between atoms: _253  and  _255
REMARK  104  A    between atoms: _255  and  _256
REMARK  105  A    between atoms: _255  and  _258
REMARK  106  A    between atoms: _258  and  _259
REMARK  107  A    between atoms: _264  and  _265
REMARK  108  A    between atoms: _267  and  _269
REMARK  109  A    between atoms: _269  and  _270
REMARK  110  A    between atoms: _269  and  _272
REMARK  111  A    between atoms: _272  and  _273
REMARK  112  A    between atoms: _276  and  _278
REMARK  113  A    between atoms: _278  and  _279
REMARK  114  A    between atoms: _278  and  _281
REMARK  115  A    between atoms: _283  and  _285
REMARK  116  A    between atoms: _285  and  _286
REMARK  117  A    between atoms: _289  and  _291
REMARK  118  A    between atoms: _291  and  _292
REMARK  119  A    between atoms: _291  and  _294
REMARK  120  A    between atoms: _294  and  _295
REMARK  121  A    between atoms: _295  and  _296
REMARK  122  A    between atoms: _296  and  _297
REMARK  123  A    between atoms: _297  and  _298
REMARK  124  A    between atoms: _302  and  _304
REMARK  125  A    between atoms: _304  and  _305
REMARK  126  A    between atoms: _304  and  _307
REMARK  127  A    between atoms: _307  and  _308
REMARK  128  A    between atoms: _311  and  _313
REMARK  129  A    between atoms: _313  and  _314
REMARK  130  A    between atoms: _317  and  _319
REMARK  131  A    between atoms: _319  and  _320
REMARK  132  A    between atoms: _319  and  _322
REMARK  133  A    between atoms: _322  and  _323
REMARK  134  A    between atoms: _323  and  _437
REMARK  135  A    between atoms: _324  and  _326
REMARK  136  A    between atoms: _326  and  _327
REMARK  137  A    between atoms: _326  and  _329
REMARK  138  A    between atoms: _329  and  _330
REMARK  139  A    between atoms: _330  and  _331
REMARK  140  A    between atoms: _331  and  _332
REMARK  141  A    between atoms: _332  and  _333
REMARK  142  A    between atoms: _337  and  _339
REMARK  143  A    between atoms: _339  and  _340
REMARK  144  A    between atoms: _342  and  _344
REMARK  145  A    between atoms: _344  and  _345
REMARK  146  A    between atoms: _344  and  _347
REMARK  147  A    between atoms: _347  and  _348
REMARK  148  A    between atoms: _351  and  _353
REMARK  149  A    between atoms: _353  and  _354
REMARK  150  A    between atoms: _353  and  _356
REMARK  151  A    between atoms: _356  and  _357
REMARK  152  A    between atoms: _359  and  _361
REMARK  153  A    between atoms: _361  and  _362
REMARK  154  A    between atoms: _364  and  _366
REMARK  155  A    between atoms: _366  and  _367
REMARK  156  A    between atoms: _369  and  _371
REMARK  157  A    between atoms: _371  and  _372
REMARK  158  A    between atoms: _371  and  _374
REMARK  159  A    between atoms: _374  and  _375
REMARK  160  A    between atoms: _378  and  _380
REMARK  161  A    between atoms: _380  and  _381
REMARK  162  A    between atoms: _380  and  _383
REMARK  163  A    between atoms: _383  and  _384
REMARK  164  A    between atoms: _387  and  _389
REMARK  165  A    between atoms: _389  and  _390
REMARK  166  A    between atoms: _389  and  _392
REMARK  167  A    between atoms: _392  and  _393
REMARK  168  A    between atoms: _395  and  _397
REMARK  169  A    between atoms: _397  and  _398
REMARK  170  A    between atoms: _397  and  _400
REMARK  171  A    between atoms: _400  and  _401
REMARK  172  A    between atoms: _411  and  _413
REMARK  173  A    between atoms: _413  and  _414
REMARK  174  A    between atoms: _416  and  _418
REMARK  175  A    between atoms: _418  and  _419
REMARK  176  A    between atoms: _418  and  _421
REMARK  177  A    between atoms: _421  and  _422
REMARK  178  A    between atoms: _422  and  _423
REMARK  179  A    between atoms: _426  and  _428
REMARK  180  A    between atoms: _428  and  _429
REMARK  181  A    between atoms: _431  and  _433
REMARK  182  A    between atoms: _433  and  _434
REMARK  183  A    between atoms: _433  and  _436
REMARK  184  A    between atoms: _436  and  _437
REMARK  185  A    between atoms: _438  and  _440
REMARK  186  A    between atoms: _440  and  _441
REMARK  187  A    between atoms: _444  and  _446
REMARK  188  A    between atoms: _446  and  _447
REMARK  189  A    between atoms: _446  and  _449
REMARK  190  A    between atoms: _449  and  _450
REMARK  191  A    between atoms: _450  and  _451
REMARK  192  A    between atoms: _456  and  _458
REMARK  193  A    between atoms: _458  and  _459
REMARK  194  A    between atoms: _458  and  _461
REMARK  195  A    between atoms: _461  and  _462
REMARK  196  A    between atoms: _462  and  _463
REMARK  197  A    between atoms: _463  and  _464
REMARK  198  A    between atoms: _474  and  _475
REMARK  199  A    between atoms: _480  and  _482
REMARK  200  A    between atoms: _482  and  _483
REMARK  201  A    between atoms: _485  and  _487
REMARK  202  A    between atoms: _487  and  _488
REMARK  203  A    between atoms: _487  and  _490
REMARK  204  A    between atoms: _493  and  _495
REMARK  205  A    between atoms: _495  and  _496
REMARK  206  A    between atoms: _495  and  _498
REMARK  207  A    between atoms: _498  and  _499
REMARK  208  A    between atoms: _504  and  _505
REMARK  209  A    between atoms: _507  and  _509
REMARK  210  A    between atoms: _509  and  _510
REMARK  211  A    between atoms: _509  and  _512
REMARK  212  A    between atoms: _512  and  _513
REMARK                            x       y       z     vdW  Elec       q    Type
REMARK                         _______ _______ _______ _____ _____    ______ ____
ROOT
ATOM      1  CA  CYS A   8      39.511 -10.228  25.711  0.00  0.00    +0.160 C 
ENDROOT
BRANCH   1   2
ATOM      2  C   CYS A   8      39.345  -8.726  25.817  0.00  0.00    +0.242 C 
ATOM      3  N   ALA A   9      38.270  -8.237  26.455  0.00  0.00    -0.297 N 
ATOM      4  H   ALA A   9      37.566  -8.925  26.789  0.00  0.00    +0.150 HD
ATOM      5  O   CYS A   8      40.210  -8.029  25.302  0.00  0.00    -0.273 OA
BRANCH   3   6
ATOM      6  CA  ALA A   9      37.997  -6.821  26.724  0.00  0.00    +0.149 C 
ATOM      7  CB  ALA A   9      39.012  -6.271  27.730  0.00  0.00    +0.031 C 
BRANCH   6   8
ATOM      8  C   ALA A   9      37.949  -5.942  25.482  0.00  0.00    +0.241 C 
ATOM      9  O   ALA A   9      38.293  -4.752  25.561  0.00  0.00    -0.273 OA
ATOM     10  N   GLN A  10      37.568  -6.521  24.318  0.00  0.00    -0.298 N 
ATOM     11  H   GLN A  10      37.317  -7.530  24.289  0.00  0.00    +0.150 HD
BRANCH  10  12
ATOM     12  CA  GLN A  10      37.514  -5.708  23.102  0.00  0.00    +0.137 C 
BRANCH  12  13
ATOM     13  C   GLN A  10      36.271  -4.859  23.109  0.00  0.00    +0.227 C 
ATOM     14  O   GLN A  10      35.241  -5.244  23.655  0.00  0.00    -0.286 OA
ENDBRANCH  12  13
BRANCH  12  15
ATOM     15  CB  GLN A  10      37.537  -6.574  21.825  0.00  0.00    +0.037 C 
BRANCH  15  16
ATOM     16  CG  GLN A  10      38.769  -7.479  21.698  0.00  0.00    +0.087 C 
BRANCH  16  17
ATOM     17  CD  GLN A  10      38.912  -7.948  20.286  0.00  0.00    +0.219 C 
ATOM     18  NE2 GLN A  10      38.209  -9.013  19.917  0.00  0.00    -0.329 N 
ATOM     19 HE21 GLN A  10      37.609  -9.505  20.609  0.00  0.00    +0.145 HD
ATOM     20 HE22 GLN A  10      38.259  -9.355  18.936  0.00  0.00    +0.145 HD
ATOM     21  OE1 GLN A  10      39.627  -7.343  19.507  0.00  0.00    -0.275 OA
ENDBRANCH  16  17
ENDBRANCH  15  16
ENDBRANCH  12  15
ENDBRANCH  10  12
ENDBRANCH   6   8
ENDBRANCH   3   6
ENDBRANCH   1   2
BRANCH   1  22
ATOM     22  N   CYS A   8      39.720 -10.639  24.318  0.00  0.00    -0.296 N 
ATOM     23  H   CYS A   8      40.458 -10.169  23.755  0.00  0.00    +0.150 HD
ATOM     24  C   GLY A   7      38.983 -11.605  23.755  0.00  0.00    +0.243 C 
ATOM     25  O   GLY A   7      38.065 -12.159  24.374  0.00  0.00    -0.273 OA
BRANCH  24  26
ATOM     26  CA  GLY A   7      39.262 -12.012  22.315  0.00  0.00    +0.176 C 
BRANCH  26  27
ATOM     27  N   GLY A   7      38.078 -12.683  21.778  0.00  0.00    -0.295 N 
ATOM     28  H   GLY A   7      38.142 -13.706  21.600  0.00  0.00    +0.150 HD
ATOM     29  C   GLU A   6      36.923 -12.078  21.501  0.00  0.00    +0.241 C 
ATOM     30  O   GLU A   6      36.716 -10.863  21.667  0.00  0.00    -0.273 OA
BRANCH  29  31
ATOM     31  CA  GLU A   6      35.779 -12.992  21.045  0.00  0.00    +0.149 C 
BRANCH  31  32
ATOM     32  N   GLU A   6      34.896 -13.093  22.223  0.00  0.00    -0.297 N 
ATOM     33  C   GLY A   5      35.090 -14.082  23.115  0.00  0.00    +0.243 C 
ATOM     34  O   GLY A   5      35.925 -14.974  22.939  0.00  0.00    -0.273 OA
ATOM     35  H   GLU A   6      34.129 -12.405  22.363  0.00  0.00    +0.150 HD
BRANCH  33  36
ATOM     36  CA  GLY A   5      34.220 -14.105  24.358  0.00  0.00    +0.176 C 
BRANCH  36  37
ATOM     37  N   GLY A   5      34.263 -15.420  24.996  0.00  0.00    -0.295 N 
ATOM     38  C   TRP A   4      33.469 -15.804  25.988  0.00  0.00    +0.241 C 
ATOM     39  O   TRP A   4      32.680 -15.055  26.544  0.00  0.00    -0.273 OA
ATOM     40  H   GLY A   5      34.966 -16.103  24.648  0.00  0.00    +0.150 HD
BRANCH  38  41
ATOM     41  CA  TRP A   4      33.635 -17.258  26.464  0.00  0.00    +0.153 C 
BRANCH  41  42
ATOM     42  N   TRP A   4      32.905 -17.571  27.708  0.00  0.00    -0.297 N 
ATOM     43  C   SER A   3      33.325 -18.582  28.484  0.00  0.00    +0.243 C 
ATOM     44  O   SER A   3      34.356 -19.232  28.255  0.00  0.00    -0.273 OA
ATOM     45  H   TRP A   4      32.071 -17.012  27.981  0.00  0.00    +0.150 HD
BRANCH  43  46
ATOM     46  CA  SER A   3      32.511 -18.915  29.717  0.00  0.00    +0.178 C 
BRANCH  46  47
ATOM     47  N   SER A   3      32.586 -17.901  30.749  0.00  0.00    -0.295 N 
ATOM     48  C   THR A   2      32.995 -18.209  31.985  0.00  0.00    +0.243 C 
ATOM     49  O   THR A   2      33.414 -19.318  32.295  0.00  0.00    -0.273 OA
ATOM     50  H   SER A   3      32.318 -16.921  30.526  0.00  0.00    +0.150 HD
BRANCH  48  51
ATOM     51  CA  THR A   2      32.901 -17.116  33.034  0.00  0.00    +0.176 C 
BRANCH  51  52
ATOM     52  N   THR A   2      32.082 -17.590  34.165  0.00  0.00    -0.295 N 
ATOM     53  H   THR A   2      32.488 -17.551  35.122  0.00  0.00    +0.150 HD
ATOM     54  C   ILE A   1      30.827 -18.074  34.016  0.00  0.00    +0.238 C 
ATOM     55  O   ILE A   1      30.264 -18.159  32.926  0.00  0.00    -0.274 OA
BRANCH  54  56
ATOM     56  CA  ILE A   1      30.102 -18.552  35.272  0.00  0.00    +0.145 C 
BRANCH  56  57
ATOM     57  CB  ILE A   1      29.843 -20.087  35.197  0.00  0.00    +0.025 C 
ATOM     58  CG2 ILE A   1      31.173 -20.841  35.133  0.00  0.00    +0.002 C 
BRANCH  57  59
ATOM     59  CG1 ILE A   1      28.931 -20.610  36.366  0.00  0.00    +0.002 C 
ATOM     60  CD1 ILE A   1      28.389 -22.015  36.092  0.00  0.00    +0.000 C 
ENDBRANCH  57  59
ENDBRANCH  56  57
BRANCH  56  61
ATOM     61  N   ILE A   1      28.892 -17.750  35.302  0.00  0.00    -0.238 NA
ATOM     62  H   ILE A   1      28.237 -17.839  34.499  0.00  0.00    +0.142 HD
ENDBRANCH  56  61
ENDBRANCH  54  56
ENDBRANCH  51  52
BRANCH  51  63
ATOM     63  CB  THR A   2      34.263 -16.657  33.542  0.00  0.00    +0.137 C 
ATOM     64  CG2 THR A   2      35.171 -16.152  32.396  0.00  0.00    +0.034 C 
BRANCH  63  65
ATOM     65  OG1 THR A   2      34.053 -15.650  34.546  0.00  0.00    -0.382 OA
ATOM     66  HG1 THR A   2      34.928 -15.339  34.888  0.00  0.00    +0.210 HD
ENDBRANCH  63  65
ENDBRANCH  51  63
ENDBRANCH  48  51
ENDBRANCH  46  47
BRANCH  46  67
ATOM     67  CB  SER A   3      31.043 -19.206  29.380  0.00  0.00    +0.166 C 
BRANCH  67  68
ATOM     68  OG  SER A   3      30.899 -20.273  28.459  0.00  0.00    -0.380 OA
ATOM     69  H   SER A   3      31.293 -21.096  28.844  0.00  0.00    +0.211 HD
ENDBRANCH  67  68
ENDBRANCH  46  67
ENDBRANCH  43  46
ENDBRANCH  41  42
BRANCH  41  70
ATOM     70  CB  TRP A   4      33.235 -18.264  25.351  0.00  0.00    +0.057 C 
BRANCH  70  71
ATOM     71  CG  TRP A   4      31.808 -18.136  24.912  0.00  0.00    -0.002 A 
ATOM     72  CD1 TRP A   4      30.709 -18.667  25.520  0.00  0.00    +0.068 A 
ATOM     73  NE1 TRP A   4      29.569 -18.270  24.862  0.00  0.00    -0.352 N 
ATOM     74  HE1 TRP A   4      28.596 -18.492  25.155  0.00  0.00    +0.166 HD
ATOM     75  CE2 TRP A   4      29.920 -17.533  23.755  0.00  0.00    +0.056 A 
ATOM     76  CZ2 TRP A   4      29.125 -16.962  22.746  0.00  0.00    +0.017 A 
ATOM     77  CH2 TRP A   4      29.769 -16.221  21.768  0.00  0.00    +0.001 A 
ATOM     78  CZ3 TRP A   4      31.158 -16.021  21.793  0.00  0.00    +0.000 A 
ATOM     79  CE3 TRP A   4      31.952 -16.630  22.761  0.00  0.00    +0.001 A 
ATOM     80  CD2 TRP A   4      31.323 -17.378  23.786  0.00  0.00    +0.013 A 
ENDBRANCH  70  71
ENDBRANCH  41  70
ENDBRANCH  38  41
ENDBRANCH  36  37
ENDBRANCH  33  36
ENDBRANCH  31  32
BRANCH  31  81
ATOM     81  CB  GLU A   6      35.037 -12.397  19.824  0.00  0.00    +0.041 C 
BRANCH  81  82
ATOM     82  CG  GLU A   6      35.894 -12.309  18.556  0.00  0.00    +0.116 C 
BRANCH  82  83
ATOM     83  CD  GLU A   6      36.688 -13.559  18.227  0.00  0.00    +0.365 C 
ATOM     84  OE2 GLU A   6      36.074 -14.642  18.185  0.00  0.00    -0.246 OA
ATOM     85  OE1 GLU A   6      37.930 -13.484  18.117  0.00  0.00    -0.246 OA
ENDBRANCH  82  83
ENDBRANCH  81  82
ENDBRANCH  31  81
ENDBRANCH  29  31
ENDBRANCH  26  27
ENDBRANCH  24  26
ENDBRANCH   1  22
BRANCH   1  86
ATOM     86  CB  CYS A   8      40.674 -10.698  26.576  0.00  0.00    +0.098 C 
BRANCH  86  87
ATOM     87  SG  CYS A   8      40.992 -12.485  26.519  0.00  0.00    -0.080 S 
BRANCH  87  88
ATOM     88  SG  TRP A   4      42.489 -12.777  27.886  0.00  0.00    -0.080 S 
BRANCH  88  89
ATOM     89  CB  TRP A   4      41.681 -12.586  29.503  0.00  0.00    +0.098 C 
BRANCH  89  90
ATOM     90  CA  TRP A   4      40.531 -13.570  29.734  0.00  0.00    +0.160 C 
BRANCH  90  91
ATOM     91  C   TRP A   4      41.017 -14.973  30.039  0.00  0.00    +0.242 C 
ATOM     92  O   TRP A   4      40.499 -15.592  30.973  0.00  0.00    -0.273 OA
ATOM     93  N   GLY A   5      41.913 -15.527  29.239  0.00  0.00    -0.297 N 
ATOM     94  H   GLY A   5      42.276 -14.962  28.445  0.00  0.00    +0.150 HD
BRANCH  93  95
ATOM     95  CA  GLY A   5      42.427 -16.898  29.406  0.00  0.00    +0.149 C 
BRANCH  95  96
ATOM     96  C   GLY A   5      42.812 -17.239  30.847  0.00  0.00    +0.241 C 
ATOM     97  O   GLY A   5      43.644 -16.557  31.437  0.00  0.00    -0.273 OA
ATOM     98  N   GLU A   6      42.213 -18.291  31.391  0.00  0.00    -0.295 N 
ATOM     99  H   GLU A   6      41.537 -18.829  30.812  0.00  0.00    +0.150 HD
BRANCH  98 100
ATOM    100  CA  GLU A   6      42.457 -18.732  32.767  0.00  0.00    +0.176 C 
BRANCH 100 101
ATOM    101  C   GLU A   6      41.375 -18.327  33.745  0.00  0.00    +0.243 C 
ATOM    102  O   GLU A   6      41.319 -18.848  34.873  0.00  0.00    -0.273 OA
ATOM    103  N   GLY A   7      40.489 -17.406  33.326  0.00  0.00    -0.296 N 
ATOM    104  H   GLY A   7      40.568 -17.005  32.370  0.00  0.00    +0.150 HD
BRANCH 103 105
ATOM    105  CA  GLY A   7      39.408 -16.966  34.221  0.00  0.00    +0.160 C 
BRANCH 105 106
ATOM    106  C   GLY A   7      38.153 -17.852  34.148  0.00  0.00    +0.241 C 
ATOM    107  O   GLY A   7      37.326 -17.827  35.072  0.00  0.00    -0.273 OA
ATOM    108  N   CYS A   8      38.015 -18.627  33.044  0.00  0.00    -0.295 N 
ATOM    109  H   CYS A   8      38.760 -18.584  32.320  0.00  0.00    +0.150 HD
BRANCH 108 110
ATOM    110  CA  CYS A   8      36.871 -19.528  32.808  0.00  0.00    +0.178 C 
BRANCH 110 111
ATOM    111  C   CYS A   8      36.532 -20.360  34.004  0.00  0.00    +0.243 C 
ATOM    112  O   CYS A   8      37.448 -20.837  34.683  0.00  0.00    -0.273 OA
ATOM    113  N   ALA A   9      35.240 -20.562  34.240  0.00  0.00    -0.295 N 
ATOM    114  H   ALA A   9      34.528 -20.119  33.625  0.00  0.00    +0.150 HD
BRANCH 113 115
ATOM    115  CA  ALA A   9      34.815 -21.396  35.350  0.00  0.00    +0.176 C 
BRANCH 115 116
ATOM    116  C   ALA A   9      34.587 -20.584  36.603  0.00  0.00    +0.243 C 
ATOM    117  O   ALA A   9      33.838 -21.003  37.486  0.00  0.00    -0.273 OA
ATOM    118  N   GLN A  10      35.239 -19.416  36.683  0.00  0.00    -0.296 N 
ATOM    119  H   GLN A  10      35.835 -19.111  35.887  0.00  0.00    +0.150 HD
BRANCH 118 120
ATOM    120  CA  GLN A  10      35.133 -18.565  37.857  0.00  0.00    +0.163 C 
BRANCH 120 121
ATOM    121  C   GLN A  10      33.799 -17.855  37.922  0.00  0.00    +0.229 C 
ATOM    122  O   GLN A  10      33.016 -17.883  36.969  0.00  0.00    -0.286 OA
ENDBRANCH 120 121
ENDBRANCH 118 120
ENDBRANCH 115 116
ENDBRANCH 113 115
ENDBRANCH 110 111
BRANCH 110 123
ATOM    123  CB  CYS A   8      37.178 -20.482  31.668  0.00  0.00    +0.166 C 
BRANCH 123 124
ATOM    124  O   CYS A   8      36.897 -19.842  30.443  0.00  0.00    -0.380 OA
ATOM    125  H   CYS A   8      37.096 -20.460  29.696  0.00  0.00    +0.211 HD
ENDBRANCH 123 124
ENDBRANCH 110 123
ENDBRANCH 108 110
ENDBRANCH 105 106
BRANCH 105 126
ATOM    126  CB  GLY A   7      39.042 -15.511  33.946  0.00  0.00    +0.143 C 
BRANCH 126 127
ATOM    127  CG  GLY A   7      40.151 -14.555  34.295  0.00  0.00    +0.367 C 
ATOM    128  OD2 GLY A   7      40.733 -14.699  35.389  0.00  0.00    -0.246 OA
ATOM    129  OD1 GLY A   7      40.397 -13.628  33.503  0.00  0.00    -0.246 OA
ENDBRANCH 126 127
ENDBRANCH 105 126
ENDBRANCH 103 105
ENDBRANCH 100 101
ENDBRANCH  98 100
ENDBRANCH  95  96
BRANCH  95 130
ATOM    130  CB  GLY A   5      43.621 -17.117  28.471  0.00  0.00    +0.029 C 
BRANCH 130 131
ATOM    131  CG  GLY A   5      43.228 -17.116  27.014  0.00  0.00    +0.000 C 
BRANCH 131 132
ATOM    132  CD  GLY A   5      44.417 -17.478  26.114  0.00  0.00    -0.024 C 
BRANCH 132 133
ATOM    133  CE  GLY A   5      44.033 -17.485  24.652  0.00  0.00    -0.086 C 
BRANCH 133 134
ATOM    134  NZ  GLY A   5      45.040 -18.211  23.837  0.00  0.00    +0.380 N 
ATOM    135  HZ1 GLY A   5      45.108 -19.195  24.168  0.00  0.00    -0.089 HD
ATOM    136  HZ2 GLY A   5      45.965 -17.746  23.936  0.00  0.00    -0.089 HD
ATOM    137  HZ3 GLY A   5      44.750 -18.199  22.838  0.00  0.00    -0.089 HD
ENDBRANCH 133 134
ENDBRANCH 132 133
ENDBRANCH 131 132
ENDBRANCH 130 131
ENDBRANCH  95 130
ENDBRANCH  93  95
ENDBRANCH  90  91
BRANCH  90 139
ATOM    138  C   SER A   3      38.610 -12.291  30.591  0.00  0.00    +0.241 C 
ATOM    139  N   TRP A   4      39.622 -13.145  30.794  0.00  0.00    -0.296 N 
ATOM    140  H   TRP A   4      39.767 -13.523  31.752  0.00  0.00    +0.150 HD
ATOM    141  O   SER A   3      38.424 -11.705  29.513  0.00  0.00    -0.273 OA
BRANCH 138 142
ATOM    142  CA  SER A   3      37.694 -12.026  31.768  0.00  0.00    +0.149 C 
ATOM    143  CB  SER A   3      36.687 -13.149  31.882  0.00  0.00    +0.031 C 
BRANCH 142 146
ATOM    144  C   THR A   2      37.555  -9.573  31.624  0.00  0.00    +0.241 C 
ATOM    145  O   THR A   2      38.663  -9.385  32.099  0.00  0.00    -0.273 OA
ATOM    146  N   SER A   3      37.009 -10.788  31.466  0.00  0.00    -0.297 N 
ATOM    147  H   SER A   3      36.035 -10.843  31.105  0.00  0.00    +0.150 HD
BRANCH 144 148
ATOM    148  CA  THR A   2      36.796  -8.432  31.011  0.00  0.00    +0.160 C 
BRANCH 148 150
ATOM    149  C   ILE A   1      36.843  -5.993  31.104  0.00  0.00    +0.238 C 
ATOM    150  N   THR A   2      37.428  -7.152  31.387  0.00  0.00    -0.297 N 
ATOM    151  H   THR A   2      38.344  -7.157  31.880  0.00  0.00    +0.150 HD
ATOM    152  O   ILE A   1      35.755  -5.914  30.533  0.00  0.00    -0.274 OA
BRANCH 149 153
ATOM    153  CA  ILE A   1      37.594  -4.723  31.471  0.00  0.00    +0.145 C 
BRANCH 153 154
ATOM    154  N   ILE A   1      37.693  -3.879  30.277  0.00  0.00    -0.238 NA
ATOM    155  H   ILE A   1      36.846  -3.723  29.694  0.00  0.00    +0.142 HD
ENDBRANCH 153 154
BRANCH 153 156
ATOM    156  CB  ILE A   1      36.900  -3.977  32.629  0.00  0.00    +0.026 C 
BRANCH 156 157
ATOM    157  CG  ILE A   1      37.694  -2.817  33.178  0.00  0.00    -0.000 C 
BRANCH 157 158
ATOM    158  CD  ILE A   1      37.032  -2.289  34.424  0.00  0.00    -0.024 C 
BRANCH 158 159
ATOM    159  CE  ILE A   1      37.818  -1.165  35.057  0.00  0.00    -0.086 C 
BRANCH 159 160
ATOM    160  NZ  ILE A   1      37.097  -0.616  36.238  0.00  0.00    +0.380 N 
ATOM    161  HZ1 ILE A   1      36.963  -1.370  36.942  0.00  0.00    -0.089 HD
ATOM    162  HZ2 ILE A   1      37.656   0.155  36.656  0.00  0.00    -0.089 HD
ATOM    163  HZ3 ILE A   1      36.171  -0.251  35.938  0.00  0.00    -0.089 HD
ENDBRANCH 159 160
ENDBRANCH 158 159
ENDBRANCH 157 158
ENDBRANCH 156 157
ENDBRANCH 153 156
ENDBRANCH 149 153
ENDBRANCH 148 150
BRANCH 148 164
ATOM    164  CB  THR A   2      36.915  -8.614  29.464  0.00  0.00    +0.143 C 
BRANCH 164 165
ATOM    165  CG  THR A   2      36.048  -9.667  28.789  0.00  0.00    +0.367 C 
ATOM    166  OD2 THR A   2      35.140 -10.218  29.458  0.00  0.00    -0.246 OA
ATOM    167  OD1 THR A   2      36.277  -9.943  27.597  0.00  0.00    -0.246 OA
ENDBRANCH 164 165
ENDBRANCH 148 164
ENDBRANCH 144 148
ENDBRANCH 142 146
ENDBRANCH 138 142
ENDBRANCH  90 139
ENDBRANCH  89  90
ENDBRANCH  88  89
ENDBRANCH  87  88
ENDBRANCH  86  87
ENDBRANCH   1  86
TORSDOF 75
REMARK  Name = ../refined-set-2016/5e2o/5e2o_pocket.pdb
REMARK  212 active torsions:
REMARK  status: ('A' for Active; 'I' for Inactive)
REMARK    1  A    between atoms: _1  and  _5
REMARK    2  A    between atoms: _5  and  _6
REMARK    3  A    between atoms: _5  and  _8
REMARK    4  A    between atoms: _8  and  _9
REMARK    5  A    between atoms: _12  and  _14
REMARK    6  A    between atoms: _14  and  _15
REMARK    7  A    between atoms: _14  and  _17
REMARK    8  A    between atoms: _20  and  _22
REMARK    9  A    between atoms: _22  and  _23
REMARK   10  A    between atoms: _22  and  _25
REMARK   11  A    between atoms: _25  and  _26
REMARK   12  A    between atoms: _29  and  _31
REMARK   13  A    between atoms: _31  and  _32
REMARK   14  A    between atoms: _31  and  _34
REMARK   15  A    between atoms: _34  and  _35
REMARK   16  A    between atoms: _35  and  _36
REMARK   17  A    between atoms: _36  and  _37
REMARK   18  A    between atoms: _46  and  _48
REMARK   19  A    between atoms: _48  and  _49
REMARK   20  A    between atoms: _48  and  _51
REMARK   21  A    between atoms: _51  and  _52
REMARK   22  A    between atoms: _57  and  _59
REMARK   23  A    between atoms: _59  and  _60
REMARK   24  A    between atoms: _59  and  _62
REMARK   25  A    between atoms: _62  and  _63
REMARK   26  A    between atoms: _66  and  _68
REMARK   27  A    between atoms: _68  and  _69
REMARK   28  A    between atoms: _68  and  _71
REMARK   29  A    between atoms: _71  and  _72
REMARK   30  A    between atoms: _72  and  _107
REMARK   31  A    between atoms: _73  and  _75
REMARK   32  A    between atoms: _75  and  _76
REMARK   33  A    between atoms: _78  and  _80
REMARK   34  A    between atoms: _80  and  _81
REMARK   35  A    between atoms: _84  and  _86
REMARK   36  A    between atoms: _86  and  _87
REMARK   37  A    between atoms: _90  and  _92
REMARK   38  A    between atoms: _92  and  _93
REMARK   39  A    between atoms: _92  and  _95
REMARK   40  A    between atoms: _95  and  _96
REMARK   41  A    between atoms: _101  and  _103
REMARK   42  A    between atoms: _103  and  _104
REMARK   43  A    between atoms: _103  and  _106
REMARK   44  A    between atoms: _106  and  _107
REMARK   45  A    between atoms: _108  and  _110
REMARK   46  A    between atoms: _110  and  _111
REMARK   47  A    between atoms: _110  and  _113
REMARK   48  A    between atoms: _113  and  _114
REMARK   49  A    between atoms: _120  and  _122
REMARK   50  A    between atoms: _122  and  _123
REMARK   51  A    between atoms: _122  and  _125
REMARK   52  A    between atoms: _125  and  _126
REMARK   53  A    between atoms: _131  and  _132
REMARK   54  A    between atoms: _134  and  _136
REMARK   55  A    between atoms: _136  and  _137
REMARK   56  A    between atoms: _136  and  _139
REMARK   57  A    between atoms: _142  and  _144
REMARK   58  A    between atoms: _144  and  _145
REMARK   59  A    between atoms: _148  and  _150
REMARK   60  A    between atoms: _150  and  _151
REMARK   61  A    between atoms: _150  and  _153
REMARK   62  A    between atoms: _153  and  _154
REMARK   63  A    between atoms: _157  and  _159
REMARK   64  A    between atoms: _159  and  _160
REMARK   65  A    between atoms: _159  and  _162
REMARK   66  A    between atoms: _165  and  _167
REMARK   67  A    between atoms: _167  and  _168
REMARK   68  A    between atoms: _167  and  _170
REMARK   69  A    between atoms: _170  and  _171
REMARK   70  A    between atoms: _181  and  _183
REMARK   71  A    between atoms: _183  and  _184
REMARK   72  A    between atoms: _186  and  _188
REMARK   73  A    between atoms: _188  and  _189
REMARK   74  A    between atoms: _188  and  _191
REMARK   75  A    between atoms: _191  and  _192
REMARK   76  A    between atoms: _197  and  _198
REMARK   77  A    between atoms: _200  and  _202
REMARK   78  A    between atoms: _202  and  _203
REMARK   79  A    between atoms: _202  and  _205
REMARK   80  A    between atoms: _205  and  _206
REMARK   81  A    between atoms: _206  and  _207
REMARK   82  A    between atoms: _207  and  _208
REMARK   83  A    between atoms: _208  and  _209
REMARK   84  A    between atoms: _213  and  _215
REMARK   85  A    between atoms: _215  and  _216
REMARK   86  A    between atoms: _215  and  _218
REMARK   87  A    between atoms: _218  and  _219
REMARK   88  A    between atoms: _222  and  _224
REMARK   89  A    between atoms: _224  and  _225
REMARK   90  A    between atoms: _224  and  _227
REMARK   91  A    between atoms: _227  and  _228
REMARK   92  A    between atoms: _231  and  _233
REMARK   93  A    between atoms: _233  and  _234
REMARK   94  A    between atoms: _233  and  _236
REMARK   95  A    between atoms: _236  and  _237
REMARK   96  A    between atoms: _237  and  _238
REMARK   97  A    between atoms: _238  and  _239
REMARK   98  A    between atoms: _239  and  _240
REMARK   99  A    between atoms: _244  and  _246
REMARK  100  A    between atoms: _246  and  _247
REMARK  101  A    between atoms: _246  and  _249
REMARK  102  A    between atoms: _249  and  _250
REMARK  103  A    between atoms: _253  and  _255
REMARK  104  A    between atoms: _255  and  _256
REMARK  105  A    between atoms: _255  and  _258
REMARK  106  A    between atoms: _258  and  _259
REMARK  107  A    between atoms: _264  and  _265
REMARK  108  A    between atoms: _267  and  _269
REMARK  109  A    between atoms: _269  and  _270
REMARK  110  A    between atoms: _269  and  _272
REMARK  111  A    between atoms: _272  and  _273
REMARK  112  A    between atoms: _276  and  _278
REMARK  113  A    between atoms: _278  and  _279
REMARK  114  A    between atoms: _278  and  _281
REMARK  115  A    between atoms: _283  and  _285
REMARK  116  A    between atoms: _285  and  _286
REMARK  117  A    between atoms: _289  and  _291
REMARK  118  A    between atoms: _291  and  _292
REMARK  119  A    between atoms: _291  and  _294
REMARK  120  A    between atoms: _294  and  _295
REMARK  121  A    between atoms: _295  and  _296
REMARK  122  A    between atoms: _296  and  _297
REMARK  123  A    between atoms: _297  and  _298
REMARK  124  A    between atoms: _302  and  _304
REMARK  125  A    between atoms: _304  and  _305
REMARK  126  A    between atoms: _304  and  _307
REMARK  127  A    between atoms: _307  and  _308
REMARK  128  A    between atoms: _311  and  _313
REMARK  129  A    between atoms: _313  and  _314
REMARK  130  A    between atoms: _317  and  _319
REMARK  131  A    between atoms: _319  and  _320
REMARK  132  A    between atoms: _319  and  _322
REMARK  133  A    between atoms: _322  and  _323
REMARK  134  A    between atoms: _323  and  _437
REMARK  135  A    between atoms: _324  and  _326
REMARK  136  A    between atoms: _326  and  _327
REMARK  137  A    between atoms: _326  and  _329
REMARK  138  A    between atoms: _329  and  _330
REMARK  139  A    between atoms: _330  and  _331
REMARK  140  A    between atoms: _331  and  _332
REMARK  141  A    between atoms: _332  and  _333
REMARK  142  A    between atoms: _337  and  _339
REMARK  143  A    between atoms: _339  and  _340
REMARK  144  A    between atoms: _342  and  _344
REMARK  145  A    between atoms: _344  and  _345
REMARK  146  A    between atoms: _344  and  _347
REMARK  147  A    between atoms: _347  and  _348
REMARK  148  A    between atoms: _351  and  _353
REMARK  149  A    between atoms: _353  and  _354
REMARK  150  A    between atoms: _353  and  _356
REMARK  151  A    between atoms: _356  and  _357
REMARK  152  A    between atoms: _359  and  _361
REMARK  153  A    between atoms: _361  and  _362
REMARK  154  A    between atoms: _364  and  _366
REMARK  155  A    between atoms: _366  and  _367
REMARK  156  A    between atoms: _369  and  _371
REMARK  157  A    between atoms: _371  and  _372
REMARK  158  A    between atoms: _371  and  _374
REMARK  159  A    between atoms: _374  and  _375
REMARK  160  A    between atoms: _378  and  _380
REMARK  161  A    between atoms: _380  and  _381
REMARK  162  A    between atoms: _380  and  _383
REMARK  163  A    between atoms: _383  and  _384
REMARK  164  A    between atoms: _387  and  _389
REMARK  165  A    between atoms: _389  and  _390
REMARK  166  A    between atoms: _389  and  _392
REMARK  167  A    between atoms: _392  and  _393
REMARK  168  A    between atoms: _395  and  _397
REMARK  169  A    between atoms: _397  and  _398
REMARK  170  A    between atoms: _397  and  _400
REMARK  171  A    between atoms: _400  and  _401
REMARK  172  A    between atoms: _411  and  _413
REMARK  173  A    between atoms: _413  and  _414
REMARK  174  A    between atoms: _416  and  _418
REMARK  175  A    between atoms: _418  and  _419
REMARK  176  A    between atoms: _418  and  _421
REMARK  177  A    between atoms: _421  and  _422
REMARK  178  A    between atoms: _422  and  _423
REMARK  179  A    between atoms: _426  and  _428
REMARK  180  A    between atoms: _428  and  _429
REMARK  181  A    between atoms: _431  and  _433
REMARK  182  A    between atoms: _433  and  _434
REMARK  183  A    between atoms: _433  and  _436
REMARK  184  A    between atoms: _436  and  _437
REMARK  185  A    between atoms: _438  and  _440
REMARK  186  A    between atoms: _440  and  _441
REMARK  187  A    between atoms: _444  and  _446
REMARK  188  A    between atoms: _446  and  _447
REMARK  189  A    between atoms: _446  and  _449
REMARK  190  A    between atoms: _449  and  _450
REMARK  191  A    between atoms: _450  and  _451
REMARK  192  A    between atoms: _456  and  _458
REMARK  193  A    between atoms: _458  and  _459
REMARK  194  A    between atoms: _458  and  _461
REMARK  195  A    between atoms: _461  and  _462
REMARK  196  A    between atoms: _462  and  _463
REMARK  197  A    between atoms: _463  and  _464
REMARK  198  A    between atoms: _474  and  _475
REMARK  199  A    between atoms: _480  and  _482
REMARK  200  A    between atoms: _482  and  _483
REMARK  201  A    between atoms: _485  and  _487
REMARK  202  A    between atoms: _487  and  _488
REMARK  203  A    between atoms: _487  and  _490
REMARK  204  A    between atoms: _493  and  _495
REMARK  205  A    between atoms: _495  and  _496
REMARK  206  A    between atoms: _495  and  _498
REMARK  207  A    between atoms: _498  and  _499
REMARK  208  A    between atoms: _504  and  _505
REMARK  209  A    between atoms: _507  and  _509
REMARK  210  A    between atoms: _509  and  _510
REMARK  211  A    between atoms: _509  and  _512
REMARK  212  A    between atoms: _512  and  _513
REMARK                            x       y       z     vdW  Elec       q    Type
REMARK                         _______ _______ _______ _____ _____    ______ ____
ROOT
ATOM      1  C   GLY A   3      30.867 -12.198  28.082  0.00  0.00    +0.243 C 
ATOM      2  O   GLY A   3      29.853 -11.597  28.420  0.00  0.00    -0.273 OA
ATOM      3  N   VAL A   4      30.853 -13.489  27.723  0.00  0.00    -0.297 N 
ATOM      4  H   VAL A   4      31.741 -13.916  27.392  0.00  0.00    +0.150 HD
ENDROOT
BRANCH   3   5
ATOM      5  CA  VAL A   4      29.644 -14.340  27.772  0.00  0.00    +0.149 C 
BRANCH   5   6
ATOM      6  C   VAL A   4      29.821 -15.302  28.909  0.00  0.00    +0.241 C 
ATOM      7  N   TYR A   5      28.784 -15.371  29.746  0.00  0.00    -0.297 N 
ATOM      8  H   TYR A   5      27.937 -14.825  29.489  0.00  0.00    +0.150 HD
ATOM      9  O   VAL A   4      30.875 -15.938  29.052  0.00  0.00    -0.273 OA
BRANCH   7  10
ATOM     10  CA  TYR A   5      28.724 -16.130  30.974  0.00  0.00    +0.153 C 
BRANCH  10  11
ATOM     11  C   TYR A   5      27.541 -17.057  30.979  0.00  0.00    +0.241 C 
ATOM     12  N   THR A   6      27.670 -18.219  31.647  0.00  0.00    -0.296 N 
ATOM     13  H   THR A   6      28.600 -18.485  32.030  0.00  0.00    +0.150 HD
ATOM     14  O   TYR A   5      26.512 -16.715  30.417  0.00  0.00    -0.273 OA
BRANCH  12  15
ATOM     15  CA  THR A   6      26.528 -19.119  31.847  0.00  0.00    +0.164 C 
BRANCH  15  16
ATOM     16  CB  THR A   6      26.996 -20.452  32.456  0.00  0.00    +0.136 C 
ATOM     17  CG2 THR A   6      25.841 -21.437  32.683  0.00  0.00    +0.034 C 
BRANCH  16  18
ATOM     18  OG1 THR A   6      27.953 -21.051  31.574  0.00  0.00    -0.382 OA
ATOM     19  HG1 THR A   6      28.261 -21.910  31.957  0.00  0.00    +0.210 HD
ENDBRANCH  16  18
ENDBRANCH  15  16
BRANCH  15  20
ATOM     20  C   THR A   6      25.576 -18.371  32.816  0.00  0.00    +0.229 C 
ATOM     21  O   THR A   6      26.015 -17.922  33.879  0.00  0.00    -0.286 OA
ENDBRANCH  15  20
ENDBRANCH  12  15
ENDBRANCH  10  11
BRANCH  10  22
ATOM     22  CB  TYR A   5      28.575 -15.147  32.170  0.00  0.00    +0.055 C 
BRANCH  22  23
ATOM     23  CG  TYR A   5      29.736 -14.179  32.315  0.00  0.00    -0.020 A 
ATOM     24  CD2 TYR A   5      30.739 -14.397  33.262  0.00  0.00    -0.001 A 
ATOM     25  CE2 TYR A   5      31.841 -13.547  33.359  0.00  0.00    +0.036 A 
ATOM     26  CZ  TYR A   5      31.914 -12.421  32.553  0.00  0.00    +0.134 A 
ATOM     27  CE1 TYR A   5      30.911 -12.165  31.631  0.00  0.00    +0.036 A 
ATOM     28  CD1 TYR A   5      29.827 -13.038  31.520  0.00  0.00    -0.001 A 
BRANCH  26  29
ATOM     29  OH  TYR A   5      32.958 -11.532  32.713  0.00  0.00    -0.506 OA
ATOM     30  HH  TYR A   5      32.861 -10.790  32.065  0.00  0.00    +0.292 HD
ENDBRANCH  26  29
ENDBRANCH  22  23
ENDBRANCH  10  22
ENDBRANCH   7  10
ENDBRANCH   5   6
BRANCH   5  31
ATOM     31  CB  VAL A   4      29.324 -15.037  26.432  0.00  0.00    +0.027 C 
ATOM     32  CG2 VAL A   4      27.932 -15.679  26.454  0.00  0.00    +0.002 C 
ATOM     33  CG1 VAL A   4      29.437 -14.047  25.256  0.00  0.00    +0.002 C 
ENDBRANCH   5  31
ENDBRANCH   3   5
BRANCH   1  34
ATOM     34  CA  GLY A   3      32.177 -11.446  27.991  0.00  0.00    +0.176 C 
BRANCH  34  36
ATOM     35  C   PRO A   2      31.422  -9.849  26.316  0.00  0.00    +0.241 C 
ATOM     36  N   GLY A   3      31.829 -10.106  27.548  0.00  0.00    -0.295 N 
ATOM     37  H   GLY A   3      31.903  -9.320  28.225  0.00  0.00    +0.150 HD
ATOM     38  O   PRO A   2      31.421 -10.681  25.433  0.00  0.00    -0.273 OA
BRANCH  35  42
ATOM     39  C   ARG A   1      32.385  -8.084  24.030  0.00  0.00    +0.241 C 
ATOM     40  O   ARG A   1      33.394  -8.245  24.716  0.00  0.00    -0.273 OA
ATOM     41  N   PRO A   2      31.143  -8.086  24.574  0.00  0.00    -0.272 N 
ATOM     42  CA  PRO A   2      30.986  -8.421  26.009  0.00  0.00    +0.152 C 
ATOM     43  CB  PRO A   2      29.483  -8.267  26.258  0.00  0.00    +0.031 C 
ATOM     44  CG  PRO A   2      28.884  -7.737  24.992  0.00  0.00    +0.024 C 
ATOM     45  CD  PRO A   2      29.833  -7.953  23.895  0.00  0.00    +0.094 C 
BRANCH  39  46
ATOM     46  CA  ARG A   1      32.536  -7.739  22.554  0.00  0.00    +0.145 C 
BRANCH  46  47
ATOM     47  N   ARG A   1      32.438  -6.280  22.447  0.00  0.00    -0.238 NA
ATOM     48  H   ARG A   1      32.985  -5.700  23.115  0.00  0.00    +0.142 HD
ENDBRANCH  46  47
BRANCH  46  49
ATOM     49  CB  ARG A   1      33.859  -8.280  21.984  0.00  0.00    +0.030 C 
BRANCH  49  50
ATOM     50  CG  ARG A   1      33.993  -8.172  20.471  0.00  0.00    +0.045 C 
BRANCH  50  51
ATOM     51  CD  ARG A   1      32.958  -8.983  19.688  0.00  0.00    +0.174 C 
BRANCH  51  52
ATOM     52  NE  ARG A   1      33.411  -9.132  18.303  0.00  0.00    -0.265 N 
ATOM     53  HE  ARG A   1      34.173  -8.504  17.976  0.00  0.00    +0.259 HD
ATOM     54  CZ  ARG A   1      32.923 -10.006  17.436  0.00  0.00    +0.342 C 
ATOM     55  NH2 ARG A   1      31.913 -10.798  17.776  0.00  0.00    -0.292 N 
ATOM     56 HH21 ARG A   1      31.500 -10.734  18.728  0.00  0.00    +0.255 HD
ATOM     57 HH22 ARG A   1      31.535 -11.482  17.090  0.00  0.00    +0.255 HD
ATOM     58  NH1 ARG A   1      33.437 -10.094  16.218  0.00  0.00    -0.292 N 
ATOM     59 HH11 ARG A   1      34.226  -9.476  15.941  0.00  0.00    +0.255 HD
ATOM     60 HH12 ARG A   1      33.052 -10.781  15.539  0.00  0.00    +0.255 HD
ENDBRANCH  51  52
ENDBRANCH  50  51
ENDBRANCH  49  50
ENDBRANCH  46  49
ENDBRANCH  39  46
ENDBRANCH  35  42
ENDBRANCH  34  36
ENDBRANCH   1  34
TORSDOF 21
REMARK  Name = ../refined-set-2016/5e2o/5e2o_pocket.pdb
REMARK  212 active torsions:
REMARK  status: ('A' for Active; 'I' for Inactive)
REMARK    1  A    between atoms: _1  and  _5
REMARK    2  A    between atoms: _5  and  _6
REMARK    3  A    between atoms: _5  and  _8
REMARK    4  A    between atoms: _8  and  _9
REMARK    5  A    between atoms: _12  and  _14
REMARK    6  A    between atoms: _14  and  _15
REMARK    7  A    between atoms: _14  and  _17
REMARK    8  A    between atoms: _20  and  _22
REMARK    9  A    between atoms: _22  and  _23
REMARK   10  A    between atoms: _22  and  _25
REMARK   11  A    between atoms: _25  and  _26
REMARK   12  A    between atoms: _29  and  _31
REMARK   13  A    between atoms: _31  and  _32
REMARK   14  A    between atoms: _31  and  _34
REMARK   15  A    between atoms: _34  and  _35
REMARK   16  A    between atoms: _35  and  _36
REMARK   17  A    between atoms: _36  and  _37
REMARK   18  A    between atoms: _46  and  _48
REMARK   19  A    between atoms: _48  and  _49
REMARK   20  A    between atoms: _48  and  _51
REMARK   21  A    between atoms: _51  and  _52
REMARK   22  A    between atoms: _57  and  _59
REMARK   23  A    between atoms: _59  and  _60
REMARK   24  A    between atoms: _59  and  _62
REMARK   25  A    between atoms: _62  and  _63
REMARK   26  A    between atoms: _66  and  _68
REMARK   27  A    between atoms: _68  and  _69
REMARK   28  A    between atoms: _68  and  _71
REMARK   29  A    between atoms: _71  and  _72
REMARK   30  A    between atoms: _72  and  _107
REMARK   31  A    between atoms: _73  and  _75
REMARK   32  A    between atoms: _75  and  _76
REMARK   33  A    between atoms: _78  and  _80
REMARK   34  A    between atoms: _80  and  _81
REMARK   35  A    between atoms: _84  and  _86
REMARK   36  A    between atoms: _86  and  _87
REMARK   37  A    between atoms: _90  and  _92
REMARK   38  A    between atoms: _92  and  _93
REMARK   39  A    between atoms: _92  and  _95
REMARK   40  A    between atoms: _95  and  _96
REMARK   41  A    between atoms: _101  and  _103
REMARK   42  A    between atoms: _103  and  _104
REMARK   43  A    between atoms: _103  and  _106
REMARK   44  A    between atoms: _106  and  _107
REMARK   45  A    between atoms: _108  and  _110
REMARK   46  A    between atoms: _110  and  _111
REMARK   47  A    between atoms: _110  and  _113
REMARK   48  A    between atoms: _113  and  _114
REMARK   49  A    between atoms: _120  and  _122
REMARK   50  A    between atoms: _122  and  _123
REMARK   51  A    between atoms: _122  and  _125
REMARK   52  A    between atoms: _125  and  _126
REMARK   53  A    between atoms: _131  and  _132
REMARK   54  A    between atoms: _134  and  _136
REMARK   55  A    between atoms: _136  and  _137
REMARK   56  A    between atoms: _136  and  _139
REMARK   57  A    between atoms: _142  and  _144
REMARK   58  A    between atoms: _144  and  _145
REMARK   59  A    between atoms: _148  and  _150
REMARK   60  A    between atoms: _150  and  _151
REMARK   61  A    between atoms: _150  and  _153
REMARK   62  A    between atoms: _153  and  _154
REMARK   63  A    between atoms: _157  and  _159
REMARK   64  A    between atoms: _159  and  _160
REMARK   65  A    between atoms: _159  and  _162
REMARK   66  A    between atoms: _165  and  _167
REMARK   67  A    between atoms: _167  and  _168
REMARK   68  A    between atoms: _167  and  _170
REMARK   69  A    between atoms: _170  and  _171
REMARK   70  A    between atoms: _181  and  _183
REMARK   71  A    between atoms: _183  and  _184
REMARK   72  A    between atoms: _186  and  _188
REMARK   73  A    between atoms: _188  and  _189
REMARK   74  A    between atoms: _188  and  _191
REMARK   75  A    between atoms: _191  and  _192
REMARK   76  A    between atoms: _197  and  _198
REMARK   77  A    between atoms: _200  and  _202
REMARK   78  A    between atoms: _202  and  _203
REMARK   79  A    between atoms: _202  and  _205
REMARK   80  A    between atoms: _205  and  _206
REMARK   81  A    between atoms: _206  and  _207
REMARK   82  A    between atoms: _207  and  _208
REMARK   83  A    between atoms: _208  and  _209
REMARK   84  A    between atoms: _213  and  _215
REMARK   85  A    between atoms: _215  and  _216
REMARK   86  A    between atoms: _215  and  _218
REMARK   87  A    between atoms: _218  and  _219
REMARK   88  A    between atoms: _222  and  _224
REMARK   89  A    between atoms: _224  and  _225
REMARK   90  A    between atoms: _224  and  _227
REMARK   91  A    between atoms: _227  and  _228
REMARK   92  A    between atoms: _231  and  _233
REMARK   93  A    between atoms: _233  and  _234
REMARK   94  A    between atoms: _233  and  _236
REMARK   95  A    between atoms: _236  and  _237
REMARK   96  A    between atoms: _237  and  _238
REMARK   97  A    between atoms: _238  and  _239
REMARK   98  A    between atoms: _239  and  _240
REMARK   99  A    between atoms: _244  and  _246
REMARK  100  A    between atoms: _246  and  _247
REMARK  101  A    between atoms: _246  and  _249
REMARK  102  A    between atoms: _249  and  _250
REMARK  103  A    between atoms: _253  and  _255
REMARK  104  A    between atoms: _255  and  _256
REMARK  105  A    between atoms: _255  and  _258
REMARK  106  A    between atoms: _258  and  _259
REMARK  107  A    between atoms: _264  and  _265
REMARK  108  A    between atoms: _267  and  _269
REMARK  109  A    between atoms: _269  and  _270
REMARK  110  A    between atoms: _269  and  _272
REMARK  111  A    between atoms: _272  and  _273
REMARK  112  A    between atoms: _276  and  _278
REMARK  113  A    between atoms: _278  and  _279
REMARK  114  A    between atoms: _278  and  _281
REMARK  115  A    between atoms: _283  and  _285
REMARK  116  A    between atoms: _285  and  _286
REMARK  117  A    between atoms: _289  and  _291
REMARK  118  A    between atoms: _291  and  _292
REMARK  119  A    between atoms: _291  and  _294
REMARK  120  A    between atoms: _294  and  _295
REMARK  121  A    between atoms: _295  and  _296
REMARK  122  A    between atoms: _296  and  _297
REMARK  123  A    between atoms: _297  and  _298
REMARK  124  A    between atoms: _302  and  _304
REMARK  125  A    between atoms: _304  and  _305
REMARK  126  A    between atoms: _304  and  _307
REMARK  127  A    between atoms: _307  and  _308
REMARK  128  A    between atoms: _311  and  _313
REMARK  129  A    between atoms: _313  and  _314
REMARK  130  A    between atoms: _317  and  _319
REMARK  131  A    between atoms: _319  and  _320
REMARK  132  A    between atoms: _319  and  _322
REMARK  133  A    between atoms: _322  and  _323
REMARK  134  A    between atoms: _323  and  _437
REMARK  135  A    between atoms: _324  and  _326
REMARK  136  A    between atoms: _326  and  _327
REMARK  137  A    between atoms: _326  and  _329
REMARK  138  A    between atoms: _329  and  _330
REMARK  139  A    between atoms: _330  and  _331
REMARK  140  A    between atoms: _331  and  _332
REMARK  141  A    between atoms: _332  and  _333
REMARK  142  A    between atoms: _337  and  _339
REMARK  143  A    between atoms: _339  and  _340
REMARK  144  A    between atoms: _342  and  _344
REMARK  145  A    between atoms: _344  and  _345
REMARK  146  A    between atoms: _344  and  _347
REMARK  147  A    between atoms: _347  and  _348
REMARK  148  A    between atoms: _351  and  _353
REMARK  149  A    between atoms: _353  and  _354
REMARK  150  A    between atoms: _353  and  _356
REMARK  151  A    between atoms: _356  and  _357
REMARK  152  A    between atoms: _359  and  _361
REMARK  153  A    between atoms: _361  and  _362
REMARK  154  A    between atoms: _364  and  _366
REMARK  155  A    between atoms: _366  and  _367
REMARK  156  A    between atoms: _369  and  _371
REMARK  157  A    between atoms: _371  and  _372
REMARK  158  A    between atoms: _371  and  _374
REMARK  159  A    between atoms: _374  and  _375
REMARK  160  A    between atoms: _378  and  _380
REMARK  161  A    between atoms: _380  and  _381
REMARK  162  A    between atoms: _380  and  _383
REMARK  163  A    between atoms: _383  and  _384
REMARK  164  A    between atoms: _387  and  _389
REMARK  165  A    between atoms: _389  and  _390
REMARK  166  A    between atoms: _389  and  _392
REMARK  167  A    between atoms: _392  and  _393
REMARK  168  A    between atoms: _395  and  _397
REMARK  169  A    between atoms: _397  and  _398
REMARK  170  A    between atoms: _397  and  _400
REMARK  171  A    between atoms: _400  and  _401
REMARK  172  A    between atoms: _411  and  _413
REMARK  173  A    between atoms: _413  and  _414
REMARK  174  A    between atoms: _416  and  _418
REMARK  175  A    between atoms: _418  and  _419
REMARK  176  A    between atoms: _418  and  _421
REMARK  177  A    between atoms: _421  and  _422
REMARK  178  A    between atoms: _422  and  _423
REMARK  179  A    between atoms: _426  and  _428
REMARK  180  A    between atoms: _428  and  _429
REMARK  181  A    between atoms: _431  and  _433
REMARK  182  A    between atoms: _433  and  _434
REMARK  183  A    between atoms: _433  and  _436
REMARK  184  A    between atoms: _436  and  _437
REMARK  185  A    between atoms: _438  and  _440
REMARK  186  A    between atoms: _440  and  _441
REMARK  187  A    between atoms: _444  and  _446
REMARK  188  A    between atoms: _446  and  _447
REMARK  189  A    between atoms: _446  and  _449
REMARK  190  A    between atoms: _449  and  _450
REMARK  191  A    between atoms: _450  and  _451
REMARK  192  A    between atoms: _456  and  _458
REMARK  193  A    between atoms: _458  and  _459
REMARK  194  A    between atoms: _458  and  _461
REMARK  195  A    between atoms: _461  and  _462
REMARK  196  A    between atoms: _462  and  _463
REMARK  197  A    between atoms: _463  and  _464
REMARK  198  A    between atoms: _474  and  _475
REMARK  199  A    between atoms: _480  and  _482
REMARK  200  A    between atoms: _482  and  _483
REMARK  201  A    between atoms: _485  and  _487
REMARK  202  A    between atoms: _487  and  _488
REMARK  203  A    between atoms: _487  and  _490
REMARK  204  A    between atoms: _493  and  _495
REMARK  205  A    between atoms: _495  and  _496
REMARK  206  A    between atoms: _495  and  _498
REMARK  207  A    between atoms: _498  and  _499
REMARK  208  A    between atoms: _504  and  _505
REMARK  209  A    between atoms: _507  and  _509
REMARK  210  A    between atoms: _509  and  _510
REMARK  211  A    between atoms: _509  and  _512
REMARK  212  A    between atoms: _512  and  _513
REMARK                            x       y       z     vdW  Elec       q    Type
REMARK                         _______ _______ _______ _____ _____    ______ ____
ROOT
ATOM      1  O   HOH     1      33.198  -9.493  30.944  0.00  0.00    +0.000 OA
ENDROOT
TORSDOF 0
REMARK  Name = ../refined-set-2016/5e2o/5e2o_pocket.pdb
REMARK  212 active torsions:
REMARK  status: ('A' for Active; 'I' for Inactive)
REMARK    1  A    between atoms: _1  and  _5
REMARK    2  A    between atoms: _5  and  _6
REMARK    3  A    between atoms: _5  and  _8
REMARK    4  A    between atoms: _8  and  _9
REMARK    5  A    between atoms: _12  and  _14
REMARK    6  A    between atoms: _14  and  _15
REMARK    7  A    between atoms: _14  and  _17
REMARK    8  A    between atoms: _20  and  _22
REMARK    9  A    between atoms: _22  and  _23
REMARK   10  A    between atoms: _22  and  _25
REMARK   11  A    between atoms: _25  and  _26
REMARK   12  A    between atoms: _29  and  _31
REMARK   13  A    between atoms: _31  and  _32
REMARK   14  A    between atoms: _31  and  _34
REMARK   15  A    between atoms: _34  and  _35
REMARK   16  A    between atoms: _35  and  _36
REMARK   17  A    between atoms: _36  and  _37
REMARK   18  A    between atoms: _46  and  _48
REMARK   19  A    between atoms: _48  and  _49
REMARK   20  A    between atoms: _48  and  _51
REMARK   21  A    between atoms: _51  and  _52
REMARK   22  A    between atoms: _57  and  _59
REMARK   23  A    between atoms: _59  and  _60
REMARK   24  A    between atoms: _59  and  _62
REMARK   25  A    between atoms: _62  and  _63
REMARK   26  A    between atoms: _66  and  _68
REMARK   27  A    between atoms: _68  and  _69
REMARK   28  A    between atoms: _68  and  _71
REMARK   29  A    between atoms: _71  and  _72
REMARK   30  A    between atoms: _72  and  _107
REMARK   31  A    between atoms: _73  and  _75
REMARK   32  A    between atoms: _75  and  _76
REMARK   33  A    between atoms: _78  and  _80
REMARK   34  A    between atoms: _80  and  _81
REMARK   35  A    between atoms: _84  and  _86
REMARK   36  A    between atoms: _86  and  _87
REMARK   37  A    between atoms: _90  and  _92
REMARK   38  A    between atoms: _92  and  _93
REMARK   39  A    between atoms: _92  and  _95
REMARK   40  A    between atoms: _95  and  _96
REMARK   41  A    between atoms: _101  and  _103
REMARK   42  A    between atoms: _103  and  _104
REMARK   43  A    between atoms: _103  and  _106
REMARK   44  A    between atoms: _106  and  _107
REMARK   45  A    between atoms: _108  and  _110
REMARK   46  A    between atoms: _110  and  _111
REMARK   47  A    between atoms: _110  and  _113
REMARK   48  A    between atoms: _113  and  _114
REMARK   49  A    between atoms: _120  and  _122
REMARK   50  A    between atoms: _122  and  _123
REMARK   51  A    between atoms: _122  and  _125
REMARK   52  A    between atoms: _125  and  _126
REMARK   53  A    between atoms: _131  and  _132
REMARK   54  A    between atoms: _134  and  _136
REMARK   55  A    between atoms: _136  and  _137
REMARK   56  A    between atoms: _136  and  _139
REMARK   57  A    between atoms: _142  and  _144
REMARK   58  A    between atoms: _144  and  _145
REMARK   59  A    between atoms: _148  and  _150
REMARK   60  A    between atoms: _150  and  _151
REMARK   61  A    between atoms: _150  and  _153
REMARK   62  A    between atoms: _153  and  _154
REMARK   63  A    between atoms: _157  and  _159
REMARK   64  A    between atoms: _159  and  _160
REMARK   65  A    between atoms: _159  and  _162
REMARK   66  A    between atoms: _165  and  _167
REMARK   67  A    between atoms: _167  and  _168
REMARK   68  A    between atoms: _167  and  _170
REMARK   69  A    between atoms: _170  and  _171
REMARK   70  A    between atoms: _181  and  _183
REMARK   71  A    between atoms: _183  and  _184
REMARK   72  A    between atoms: _186  and  _188
REMARK   73  A    between atoms: _188  and  _189
REMARK   74  A    between atoms: _188  and  _191
REMARK   75  A    between atoms: _191  and  _192
REMARK   76  A    between atoms: _197  and  _198
REMARK   77  A    between atoms: _200  and  _202
REMARK   78  A    between atoms: _202  and  _203
REMARK   79  A    between atoms: _202  and  _205
REMARK   80  A    between atoms: _205  and  _206
REMARK   81  A    between atoms: _206  and  _207
REMARK   82  A    between atoms: _207  and  _208
REMARK   83  A    between atoms: _208  and  _209
REMARK   84  A    between atoms: _213  and  _215
REMARK   85  A    between atoms: _215  and  _216
REMARK   86  A    between atoms: _215  and  _218
REMARK   87  A    between atoms: _218  and  _219
REMARK   88  A    between atoms: _222  and  _224
REMARK   89  A    between atoms: _224  and  _225
REMARK   90  A    between atoms: _224  and  _227
REMARK   91  A    between atoms: _227  and  _228
REMARK   92  A    between atoms: _231  and  _233
REMARK   93  A    between atoms: _233  and  _234
REMARK   94  A    between atoms: _233  and  _236
REMARK   95  A    between atoms: _236  and  _237
REMARK   96  A    between atoms: _237  and  _238
REMARK   97  A    between atoms: _238  and  _239
REMARK   98  A    between atoms: _239  and  _240
REMARK   99  A    between atoms: _244  and  _246
REMARK  100  A    between atoms: _246  and  _247
REMARK  101  A    between atoms: _246  and  _249
REMARK  102  A    between atoms: _249  and  _250
REMARK  103  A    between atoms: _253  and  _255
REMARK  104  A    between atoms: _255  and  _256
REMARK  105  A    between atoms: _255  and  _258
REMARK  106  A    between atoms: _258  and  _259
REMARK  107  A    between atoms: _264  and  _265
REMARK  108  A    between atoms: _267  and  _269
REMARK  109  A    between atoms: _269  and  _270
REMARK  110  A    between atoms: _269  and  _272
REMARK  111  A    between atoms: _272  and  _273
REMARK  112  A    between atoms: _276  and  _278
REMARK  113  A    between atoms: _278  and  _279
REMARK  114  A    between atoms: _278  and  _281
REMARK  115  A    between atoms: _283  and  _285
REMARK  116  A    between atoms: _285  and  _286
REMARK  117  A    between atoms: _289  and  _291
REMARK  118  A    between atoms: _291  and  _292
REMARK  119  A    between atoms: _291  and  _294
REMARK  120  A    between atoms: _294  and  _295
REMARK  121  A    between atoms: _295  and  _296
REMARK  122  A    between atoms: _296  and  _297
REMARK  123  A    between atoms: _297  and  _298
REMARK  124  A    between atoms: _302  and  _304
REMARK  125  A    between atoms: _304  and  _305
REMARK  126  A    between atoms: _304  and  _307
REMARK  127  A    between atoms: _307  and  _308
REMARK  128  A    between atoms: _311  and  _313
REMARK  129  A    between atoms: _313  and  _314
REMARK  130  A    between atoms: _317  and  _319
REMARK  131  A    between atoms: _319  and  _320
REMARK  132  A    between atoms: _319  and  _322
REMARK  133  A    between atoms: _322  and  _323
REMARK  134  A    between atoms: _323  and  _437
REMARK  135  A    between atoms: _324  and  _326
REMARK  136  A    between atoms: _326  and  _327
REMARK  137  A    between atoms: _326  and  _329
REMARK  138  A    between atoms: _329  and  _330
REMARK  139  A    between atoms: _330  and  _331
REMARK  140  A    between atoms: _331  and  _332
REMARK  141  A    between atoms: _332  and  _333
REMARK  142  A    between atoms: _337  and  _339
REMARK  143  A    between atoms: _339  and  _340
REMARK  144  A    between atoms: _342  and  _344
REMARK  145  A    between atoms: _344  and  _345
REMARK  146  A    between atoms: _344  and  _347
REMARK  147  A    between atoms: _347  and  _348
REMARK  148  A    between atoms: _351  and  _353
REMARK  149  A    between atoms: _353  and  _354
REMARK  150  A    between atoms: _353  and  _356
REMARK  151  A    between atoms: _356  and  _357
REMARK  152  A    between atoms: _359  and  _361
REMARK  153  A    between atoms: _361  and  _362
REMARK  154  A    between atoms: _364  and  _366
REMARK  155  A    between atoms: _366  and  _367
REMARK  156  A    between atoms: _369  and  _371
REMARK  157  A    between atoms: _371  and  _372
REMARK  158  A    between atoms: _371  and  _374
REMARK  159  A    between atoms: _374  and  _375
REMARK  160  A    between atoms: _378  and  _380
REMARK  161  A    between atoms: _380  and  _381
REMARK  162  A    between atoms: _380  and  _383
REMARK  163  A    between atoms: _383  and  _384
REMARK  164  A    between atoms: _387  and  _389
REMARK  165  A    between atoms: _389  and  _390
REMARK  166  A    between atoms: _389  and  _392
REMARK  167  A    between atoms: _392  and  _393
REMARK  168  A    between atoms: _395  and  _397
REMARK  169  A    between atoms: _397  and  _398
REMARK  170  A    between atoms: _397  and  _400
REMARK  171  A    between atoms: _400  and  _401
REMARK  172  A    between atoms: _411  and  _413
REMARK  173  A    between atoms: _413  and  _414
REMARK  174  A    between atoms: _416  and  _418
REMARK  175  A    between atoms: _418  and  _419
REMARK  176  A    between atoms: _418  and  _421
REMARK  177  A    between atoms: _421  and  _422
REMARK  178  A    between atoms: _422  and  _423
REMARK  179  A    between atoms: _426  and  _428
REMARK  180  A    between atoms: _428  and  _429
REMARK  181  A    between atoms: _431  and  _433
REMARK  182  A    between atoms: _433  and  _434
REMARK  183  A    between atoms: _433  and  _436
REMARK  184  A    between atoms: _436  and  _437
REMARK  185  A    between atoms: _438  and  _440
REMARK  186  A    between atoms: _440  and  _441
REMARK  187  A    between atoms: _444  and  _446
REMARK  188  A    between atoms: _446  and  _447
REMARK  189  A    between atoms: _446  and  _449
REMARK  190  A    between atoms: _449  and  _450
REMARK  191  A    between atoms: _450  and  _451
REMARK  192  A    between atoms: _456  and  _458
REMARK  193  A    between atoms: _458  and  _459
REMARK  194  A    between atoms: _458  and  _461
REMARK  195  A    between atoms: _461  and  _462
REMARK  196  A    between atoms: _462  and  _463
REMARK  197  A    between atoms: _463  and  _464
REMARK  198  A    between atoms: _474  and  _475
REMARK  199  A    between atoms: _480  and  _482
REMARK  200  A    between atoms: _482  and  _483
REMARK  201  A    between atoms: _485  and  _487
REMARK  202  A    between atoms: _487  and  _488
REMARK  203  A    between atoms: _487  and  _490
REMARK  204  A    between atoms: _493  and  _495
REMARK  205  A    between atoms: _495  and  _496
REMARK  206  A    between atoms: _495  and  _498
REMARK  207  A    between atoms: _498  and  _499
REMARK  208  A    between atoms: _504  and  _505
REMARK  209  A    between atoms: _507  and  _509
REMARK  210  A    between atoms: _509  and  _510
REMARK  211  A    between atoms: _509  and  _512
REMARK  212  A    between atoms: _512  and  _513
REMARK                            x       y       z     vdW  Elec       q    Type
REMARK                         _______ _______ _______ _____ _____    ______ ____
ROOT
ATOM      1  O   HOH     1      48.170 -22.730  34.149  0.00  0.00    +0.000 OA
ENDROOT
TORSDOF 0
REMARK  Name = ../refined-set-2016/5e2o/5e2o_pocket.pdb
REMARK  212 active torsions:
REMARK  status: ('A' for Active; 'I' for Inactive)
REMARK    1  A    between atoms: _1  and  _5
REMARK    2  A    between atoms: _5  and  _6
REMARK    3  A    between atoms: _5  and  _8
REMARK    4  A    between atoms: _8  and  _9
REMARK    5  A    between atoms: _12  and  _14
REMARK    6  A    between atoms: _14  and  _15
REMARK    7  A    between atoms: _14  and  _17
REMARK    8  A    between atoms: _20  and  _22
REMARK    9  A    between atoms: _22  and  _23
REMARK   10  A    between atoms: _22  and  _25
REMARK   11  A    between atoms: _25  and  _26
REMARK   12  A    between atoms: _29  and  _31
REMARK   13  A    between atoms: _31  and  _32
REMARK   14  A    between atoms: _31  and  _34
REMARK   15  A    between atoms: _34  and  _35
REMARK   16  A    between atoms: _35  and  _36
REMARK   17  A    between atoms: _36  and  _37
REMARK   18  A    between atoms: _46  and  _48
REMARK   19  A    between atoms: _48  and  _49
REMARK   20  A    between atoms: _48  and  _51
REMARK   21  A    between atoms: _51  and  _52
REMARK   22  A    between atoms: _57  and  _59
REMARK   23  A    between atoms: _59  and  _60
REMARK   24  A    between atoms: _59  and  _62
REMARK   25  A    between atoms: _62  and  _63
REMARK   26  A    between atoms: _66  and  _68
REMARK   27  A    between atoms: _68  and  _69
REMARK   28  A    between atoms: _68  and  _71
REMARK   29  A    between atoms: _71  and  _72
REMARK   30  A    between atoms: _72  and  _107
REMARK   31  A    between atoms: _73  and  _75
REMARK   32  A    between atoms: _75  and  _76
REMARK   33  A    between atoms: _78  and  _80
REMARK   34  A    between atoms: _80  and  _81
REMARK   35  A    between atoms: _84  and  _86
REMARK   36  A    between atoms: _86  and  _87
REMARK   37  A    between atoms: _90  and  _92
REMARK   38  A    between atoms: _92  and  _93
REMARK   39  A    between atoms: _92  and  _95
REMARK   40  A    between atoms: _95  and  _96
REMARK   41  A    between atoms: _101  and  _103
REMARK   42  A    between atoms: _103  and  _104
REMARK   43  A    between atoms: _103  and  _106
REMARK   44  A    between atoms: _106  and  _107
REMARK   45  A    between atoms: _108  and  _110
REMARK   46  A    between atoms: _110  and  _111
REMARK   47  A    between atoms: _110  and  _113
REMARK   48  A    between atoms: _113  and  _114
REMARK   49  A    between atoms: _120  and  _122
REMARK   50  A    between atoms: _122  and  _123
REMARK   51  A    between atoms: _122  and  _125
REMARK   52  A    between atoms: _125  and  _126
REMARK   53  A    between atoms: _131  and  _132
REMARK   54  A    between atoms: _134  and  _136
REMARK   55  A    between atoms: _136  and  _137
REMARK   56  A    between atoms: _136  and  _139
REMARK   57  A    between atoms: _142  and  _144
REMARK   58  A    between atoms: _144  and  _145
REMARK   59  A    between atoms: _148  and  _150
REMARK   60  A    between atoms: _150  and  _151
REMARK   61  A    between atoms: _150  and  _153
REMARK   62  A    between atoms: _153  and  _154
REMARK   63  A    between atoms: _157  and  _159
REMARK   64  A    between atoms: _159  and  _160
REMARK   65  A    between atoms: _159  and  _162
REMARK   66  A    between atoms: _165  and  _167
REMARK   67  A    between atoms: _167  and  _168
REMARK   68  A    between atoms: _167  and  _170
REMARK   69  A    between atoms: _170  and  _171
REMARK   70  A    between atoms: _181  and  _183
REMARK   71  A    between atoms: _183  and  _184
REMARK   72  A    between atoms: _186  and  _188
REMARK   73  A    between atoms: _188  and  _189
REMARK   74  A    between atoms: _188  and  _191
REMARK   75  A    between atoms: _191  and  _192
REMARK   76  A    between atoms: _197  and  _198
REMARK   77  A    between atoms: _200  and  _202
REMARK   78  A    between atoms: _202  and  _203
REMARK   79  A    between atoms: _202  and  _205
REMARK   80  A    between atoms: _205  and  _206
REMARK   81  A    between atoms: _206  and  _207
REMARK   82  A    between atoms: _207  and  _208
REMARK   83  A    between atoms: _208  and  _209
REMARK   84  A    between atoms: _213  and  _215
REMARK   85  A    between atoms: _215  and  _216
REMARK   86  A    between atoms: _215  and  _218
REMARK   87  A    between atoms: _218  and  _219
REMARK   88  A    between atoms: _222  and  _224
REMARK   89  A    between atoms: _224  and  _225
REMARK   90  A    between atoms: _224  and  _227
REMARK   91  A    between atoms: _227  and  _228
REMARK   92  A    between atoms: _231  and  _233
REMARK   93  A    between atoms: _233  and  _234
REMARK   94  A    between atoms: _233  and  _236
REMARK   95  A    between atoms: _236  and  _237
REMARK   96  A    between atoms: _237  and  _238
REMARK   97  A    between atoms: _238  and  _239
REMARK   98  A    between atoms: _239  and  _240
REMARK   99  A    between atoms: _244  and  _246
REMARK  100  A    between atoms: _246  and  _247
REMARK  101  A    between atoms: _246  and  _249
REMARK  102  A    between atoms: _249  and  _250
REMARK  103  A    between atoms: _253  and  _255
REMARK  104  A    between atoms: _255  and  _256
REMARK  105  A    between atoms: _255  and  _258
REMARK  106  A    between atoms: _258  and  _259
REMARK  107  A    between atoms: _264  and  _265
REMARK  108  A    between atoms: _267  and  _269
REMARK  109  A    between atoms: _269  and  _270
REMARK  110  A    between atoms: _269  and  _272
REMARK  111  A    between atoms: _272  and  _273
REMARK  112  A    between atoms: _276  and  _278
REMARK  113  A    between atoms: _278  and  _279
REMARK  114  A    between atoms: _278  and  _281
REMARK  115  A    between atoms: _283  and  _285
REMARK  116  A    between atoms: _285  and  _286
REMARK  117  A    between atoms: _289  and  _291
REMARK  118  A    between atoms: _291  and  _292
REMARK  119  A    between atoms: _291  and  _294
REMARK  120  A    between atoms: _294  and  _295
REMARK  121  A    between atoms: _295  and  _296
REMARK  122  A    between atoms: _296  and  _297
REMARK  123  A    between atoms: _297  and  _298
REMARK  124  A    between atoms: _302  and  _304
REMARK  125  A    between atoms: _304  and  _305
REMARK  126  A    between atoms: _304  and  _307
REMARK  127  A    between atoms: _307  and  _308
REMARK  128  A    between atoms: _311  and  _313
REMARK  129  A    between atoms: _313  and  _314
REMARK  130  A    between atoms: _317  and  _319
REMARK  131  A    between atoms: _319  and  _320
REMARK  132  A    between atoms: _319  and  _322
REMARK  133  A    between atoms: _322  and  _323
REMARK  134  A    between atoms: _323  and  _437
REMARK  135  A    between atoms: _324  and  _326
REMARK  136  A    between atoms: _326  and  _327
REMARK  137  A    between atoms: _326  and  _329
REMARK  138  A    between atoms: _329  and  _330
REMARK  139  A    between atoms: _330  and  _331
REMARK  140  A    between atoms: _331  and  _332
REMARK  141  A    between atoms: _332  and  _333
REMARK  142  A    between atoms: _337  and  _339
REMARK  143  A    between atoms: _339  and  _340
REMARK  144  A    between atoms: _342  and  _344
REMARK  145  A    between atoms: _344  and  _345
REMARK  146  A    between atoms: _344  and  _347
REMARK  147  A    between atoms: _347  and  _348
REMARK  148  A    between atoms: _351  and  _353
REMARK  149  A    between atoms: _353  and  _354
REMARK  150  A    between atoms: _353  and  _356
REMARK  151  A    between atoms: _356  and  _357
REMARK  152  A    between atoms: _359  and  _361
REMARK  153  A    between atoms: _361  and  _362
REMARK  154  A    between atoms: _364  and  _366
REMARK  155  A    between atoms: _366  and  _367
REMARK  156  A    between atoms: _369  and  _371
REMARK  157  A    between atoms: _371  and  _372
REMARK  158  A    between atoms: _371  and  _374
REMARK  159  A    between atoms: _374  and  _375
REMARK  160  A    between atoms: _378  and  _380
REMARK  161  A    between atoms: _380  and  _381
REMARK  162  A    between atoms: _380  and  _383
REMARK  163  A    between atoms: _383  and  _384
REMARK  164  A    between atoms: _387  and  _389
REMARK  165  A    between atoms: _389  and  _390
REMARK  166  A    between atoms: _389  and  _392
REMARK  167  A    between atoms: _392  and  _393
REMARK  168  A    between atoms: _395  and  _397
REMARK  169  A    between atoms: _397  and  _398
REMARK  170  A    between atoms: _397  and  _400
REMARK  171  A    between atoms: _400  and  _401
REMARK  172  A    between atoms: _411  and  _413
REMARK  173  A    between atoms: _413  and  _414
REMARK  174  A    between atoms: _416  and  _418
REMARK  175  A    between atoms: _418  and  _419
REMARK  176  A    between atoms: _418  and  _421
REMARK  177  A    between atoms: _421  and  _422
REMARK  178  A    between atoms: _422  and  _423
REMARK  179  A    between atoms: _426  and  _428
REMARK  180  A    between atoms: _428  and  _429
REMARK  181  A    between atoms: _431  and  _433
REMARK  182  A    between atoms: _433  and  _434
REMARK  183  A    between atoms: _433  and  _436
REMARK  184  A    between atoms: _436  and  _437
REMARK  185  A    between atoms: _438  and  _440
REMARK  186  A    between atoms: _440  and  _441
REMARK  187  A    between atoms: _444  and  _446
REMARK  188  A    between atoms: _446  and  _447
REMARK  189  A    between atoms: _446  and  _449
REMARK  190  A    between atoms: _449  and  _450
REMARK  191  A    between atoms: _450  and  _451
REMARK  192  A    between atoms: _456  and  _458
REMARK  193  A    between atoms: _458  and  _459
REMARK  194  A    between atoms: _458  and  _461
REMARK  195  A    between atoms: _461  and  _462
REMARK  196  A    between atoms: _462  and  _463
REMARK  197  A    between atoms: _463  and  _464
REMARK  198  A    between atoms: _474  and  _475
REMARK  199  A    between atoms: _480  and  _482
REMARK  200  A    between atoms: _482  and  _483
REMARK  201  A    between atoms: _485  and  _487
REMARK  202  A    between atoms: _487  and  _488
REMARK  203  A    between atoms: _487  and  _490
REMARK  204  A    between atoms: _493  and  _495
REMARK  205  A    between atoms: _495  and  _496
REMARK  206  A    between atoms: _495  and  _498
REMARK  207  A    between atoms: _498  and  _499
REMARK  208  A    between atoms: _504  and  _505
REMARK  209  A    between atoms: _507  and  _509
REMARK  210  A    between atoms: _509  and  _510
REMARK  211  A    between atoms: _509  and  _512
REMARK  212  A    between atoms: _512  and  _513
REMARK                            x       y       z     vdW  Elec       q    Type
REMARK                         _______ _______ _______ _____ _____    ______ ____
ROOT
ATOM      1  O   HOH     1      47.016 -16.092  23.820  0.00  0.00    +0.000 OA
ENDROOT
TORSDOF 0
REMARK  Name = ../refined-set-2016/5e2o/5e2o_pocket.pdb
REMARK  212 active torsions:
REMARK  status: ('A' for Active; 'I' for Inactive)
REMARK    1  A    between atoms: _1  and  _5
REMARK    2  A    between atoms: _5  and  _6
REMARK    3  A    between atoms: _5  and  _8
REMARK    4  A    between atoms: _8  and  _9
REMARK    5  A    between atoms: _12  and  _14
REMARK    6  A    between atoms: _14  and  _15
REMARK    7  A    between atoms: _14  and  _17
REMARK    8  A    between atoms: _20  and  _22
REMARK    9  A    between atoms: _22  and  _23
REMARK   10  A    between atoms: _22  and  _25
REMARK   11  A    between atoms: _25  and  _26
REMARK   12  A    between atoms: _29  and  _31
REMARK   13  A    between atoms: _31  and  _32
REMARK   14  A    between atoms: _31  and  _34
REMARK   15  A    between atoms: _34  and  _35
REMARK   16  A    between atoms: _35  and  _36
REMARK   17  A    between atoms: _36  and  _37
REMARK   18  A    between atoms: _46  and  _48
REMARK   19  A    between atoms: _48  and  _49
REMARK   20  A    between atoms: _48  and  _51
REMARK   21  A    between atoms: _51  and  _52
REMARK   22  A    between atoms: _57  and  _59
REMARK   23  A    between atoms: _59  and  _60
REMARK   24  A    between atoms: _59  and  _62
REMARK   25  A    between atoms: _62  and  _63
REMARK   26  A    between atoms: _66  and  _68
REMARK   27  A    between atoms: _68  and  _69
REMARK   28  A    between atoms: _68  and  _71
REMARK   29  A    between atoms: _71  and  _72
REMARK   30  A    between atoms: _72  and  _107
REMARK   31  A    between atoms: _73  and  _75
REMARK   32  A    between atoms: _75  and  _76
REMARK   33  A    between atoms: _78  and  _80
REMARK   34  A    between atoms: _80  and  _81
REMARK   35  A    between atoms: _84  and  _86
REMARK   36  A    between atoms: _86  and  _87
REMARK   37  A    between atoms: _90  and  _92
REMARK   38  A    between atoms: _92  and  _93
REMARK   39  A    between atoms: _92  and  _95
REMARK   40  A    between atoms: _95  and  _96
REMARK   41  A    between atoms: _101  and  _103
REMARK   42  A    between atoms: _103  and  _104
REMARK   43  A    between atoms: _103  and  _106
REMARK   44  A    between atoms: _106  and  _107
REMARK   45  A    between atoms: _108  and  _110
REMARK   46  A    between atoms: _110  and  _111
REMARK   47  A    between atoms: _110  and  _113
REMARK   48  A    between atoms: _113  and  _114
REMARK   49  A    between atoms: _120  and  _122
REMARK   50  A    between atoms: _122  and  _123
REMARK   51  A    between atoms: _122  and  _125
REMARK   52  A    between atoms: _125  and  _126
REMARK   53  A    between atoms: _131  and  _132
REMARK   54  A    between atoms: _134  and  _136
REMARK   55  A    between atoms: _136  and  _137
REMARK   56  A    between atoms: _136  and  _139
REMARK   57  A    between atoms: _142  and  _144
REMARK   58  A    between atoms: _144  and  _145
REMARK   59  A    between atoms: _148  and  _150
REMARK   60  A    between atoms: _150  and  _151
REMARK   61  A    between atoms: _150  and  _153
REMARK   62  A    between atoms: _153  and  _154
REMARK   63  A    between atoms: _157  and  _159
REMARK   64  A    between atoms: _159  and  _160
REMARK   65  A    between atoms: _159  and  _162
REMARK   66  A    between atoms: _165  and  _167
REMARK   67  A    between atoms: _167  and  _168
REMARK   68  A    between atoms: _167  and  _170
REMARK   69  A    between atoms: _170  and  _171
REMARK   70  A    between atoms: _181  and  _183
REMARK   71  A    between atoms: _183  and  _184
REMARK   72  A    between atoms: _186  and  _188
REMARK   73  A    between atoms: _188  and  _189
REMARK   74  A    between atoms: _188  and  _191
REMARK   75  A    between atoms: _191  and  _192
REMARK   76  A    between atoms: _197  and  _198
REMARK   77  A    between atoms: _200  and  _202
REMARK   78  A    between atoms: _202  and  _203
REMARK   79  A    between atoms: _202  and  _205
REMARK   80  A    between atoms: _205  and  _206
REMARK   81  A    between atoms: _206  and  _207
REMARK   82  A    between atoms: _207  and  _208
REMARK   83  A    between atoms: _208  and  _209
REMARK   84  A    between atoms: _213  and  _215
REMARK   85  A    between atoms: _215  and  _216
REMARK   86  A    between atoms: _215  and  _218
REMARK   87  A    between atoms: _218  and  _219
REMARK   88  A    between atoms: _222  and  _224
REMARK   89  A    between atoms: _224  and  _225
REMARK   90  A    between atoms: _224  and  _227
REMARK   91  A    between atoms: _227  and  _228
REMARK   92  A    between atoms: _231  and  _233
REMARK   93  A    between atoms: _233  and  _234
REMARK   94  A    between atoms: _233  and  _236
REMARK   95  A    between atoms: _236  and  _237
REMARK   96  A    between atoms: _237  and  _238
REMARK   97  A    between atoms: _238  and  _239
REMARK   98  A    between atoms: _239  and  _240
REMARK   99  A    between atoms: _244  and  _246
REMARK  100  A    between atoms: _246  and  _247
REMARK  101  A    between atoms: _246  and  _249
REMARK  102  A    between atoms: _249  and  _250
REMARK  103  A    between atoms: _253  and  _255
REMARK  104  A    between atoms: _255  and  _256
REMARK  105  A    between atoms: _255  and  _258
REMARK  106  A    between atoms: _258  and  _259
REMARK  107  A    between atoms: _264  and  _265
REMARK  108  A    between atoms: _267  and  _269
REMARK  109  A    between atoms: _269  and  _270
REMARK  110  A    between atoms: _269  and  _272
REMARK  111  A    between atoms: _272  and  _273
REMARK  112  A    between atoms: _276  and  _278
REMARK  113  A    between atoms: _278  and  _279
REMARK  114  A    between atoms: _278  and  _281
REMARK  115  A    between atoms: _283  and  _285
REMARK  116  A    between atoms: _285  and  _286
REMARK  117  A    between atoms: _289  and  _291
REMARK  118  A    between atoms: _291  and  _292
REMARK  119  A    between atoms: _291  and  _294
REMARK  120  A    between atoms: _294  and  _295
REMARK  121  A    between atoms: _295  and  _296
REMARK  122  A    between atoms: _296  and  _297
REMARK  123  A    between atoms: _297  and  _298
REMARK  124  A    between atoms: _302  and  _304
REMARK  125  A    between atoms: _304  and  _305
REMARK  126  A    between atoms: _304  and  _307
REMARK  127  A    between atoms: _307  and  _308
REMARK  128  A    between atoms: _311  and  _313
REMARK  129  A    between atoms: _313  and  _314
REMARK  130  A    between atoms: _317  and  _319
REMARK  131  A    between atoms: _319  and  _320
REMARK  132  A    between atoms: _319  and  _322
REMARK  133  A    between atoms: _322  and  _323
REMARK  134  A    between atoms: _323  and  _437
REMARK  135  A    between atoms: _324  and  _326
REMARK  136  A    between atoms: _326  and  _327
REMARK  137  A    between atoms: _326  and  _329
REMARK  138  A    between atoms: _329  and  _330
REMARK  139  A    between atoms: _330  and  _331
REMARK  140  A    between atoms: _331  and  _332
REMARK  141  A    between atoms: _332  and  _333
REMARK  142  A    between atoms: _337  and  _339
REMARK  143  A    between atoms: _339  and  _340
REMARK  144  A    between atoms: _342  and  _344
REMARK  145  A    between atoms: _344  and  _345
REMARK  146  A    between atoms: _344  and  _347
REMARK  147  A    between atoms: _347  and  _348
REMARK  148  A    between atoms: _351  and  _353
REMARK  149  A    between atoms: _353  and  _354
REMARK  150  A    between atoms: _353  and  _356
REMARK  151  A    between atoms: _356  and  _357
REMARK  152  A    between atoms: _359  and  _361
REMARK  153  A    between atoms: _361  and  _362
REMARK  154  A    between atoms: _364  and  _366
REMARK  155  A    between atoms: _366  and  _367
REMARK  156  A    between atoms: _369  and  _371
REMARK  157  A    between atoms: _371  and  _372
REMARK  158  A    between atoms: _371  and  _374
REMARK  159  A    between atoms: _374  and  _375
REMARK  160  A    between atoms: _378  and  _380
REMARK  161  A    between atoms: _380  and  _381
REMARK  162  A    between atoms: _380  and  _383
REMARK  163  A    between atoms: _383  and  _384
REMARK  164  A    between atoms: _387  and  _389
REMARK  165  A    between atoms: _389  and  _390
REMARK  166  A    between atoms: _389  and  _392
REMARK  167  A    between atoms: _392  and  _393
REMARK  168  A    between atoms: _395  and  _397
REMARK  169  A    between atoms: _397  and  _398
REMARK  170  A    between atoms: _397  and  _400
REMARK  171  A    between atoms: _400  and  _401
REMARK  172  A    between atoms: _411  and  _413
REMARK  173  A    between atoms: _413  and  _414
REMARK  174  A    between atoms: _416  and  _418
REMARK  175  A    between atoms: _418  and  _419
REMARK  176  A    between atoms: _418  and  _421
REMARK  177  A    between atoms: _421  and  _422
REMARK  178  A    between atoms: _422  and  _423
REMARK  179  A    between atoms: _426  and  _428
REMARK  180  A    between atoms: _428  and  _429
REMARK  181  A    between atoms: _431  and  _433
REMARK  182  A    between atoms: _433  and  _434
REMARK  183  A    between atoms: _433  and  _436
REMARK  184  A    between atoms: _436  and  _437
REMARK  185  A    between atoms: _438  and  _440
REMARK  186  A    between atoms: _440  and  _441
REMARK  187  A    between atoms: _444  and  _446
REMARK  188  A    between atoms: _446  and  _447
REMARK  189  A    between atoms: _446  and  _449
REMARK  190  A    between atoms: _449  and  _450
REMARK  191  A    between atoms: _450  and  _451
REMARK  192  A    between atoms: _456  and  _458
REMARK  193  A    between atoms: _458  and  _459
REMARK  194  A    between atoms: _458  and  _461
REMARK  195  A    between atoms: _461  and  _462
REMARK  196  A    between atoms: _462  and  _463
REMARK  197  A    between atoms: _463  and  _464
REMARK  198  A    between atoms: _474  and  _475
REMARK  199  A    between atoms: _480  and  _482
REMARK  200  A    between atoms: _482  and  _483
REMARK  201  A    between atoms: _485  and  _487
REMARK  202  A    between atoms: _487  and  _488
REMARK  203  A    between atoms: _487  and  _490
REMARK  204  A    between atoms: _493  and  _495
REMARK  205  A    between atoms: _495  and  _496
REMARK  206  A    between atoms: _495  and  _498
REMARK  207  A    between atoms: _498  and  _499
REMARK  208  A    between atoms: _504  and  _505
REMARK  209  A    between atoms: _507  and  _509
REMARK  210  A    between atoms: _509  and  _510
REMARK  211  A    between atoms: _509  and  _512
REMARK  212  A    between atoms: _512  and  _513
REMARK                            x       y       z     vdW  Elec       q    Type
REMARK                         _______ _______ _______ _____ _____    ______ ____
ROOT
ATOM      1  O   HOH     1      35.406 -15.407  36.879  0.00  0.00    +0.000 OA
ENDROOT
TORSDOF 0
REMARK  Name = ../refined-set-2016/5e2o/5e2o_pocket.pdb
REMARK  212 active torsions:
REMARK  status: ('A' for Active; 'I' for Inactive)
REMARK    1  A    between atoms: _1  and  _5
REMARK    2  A    between atoms: _5  and  _6
REMARK    3  A    between atoms: _5  and  _8
REMARK    4  A    between atoms: _8  and  _9
REMARK    5  A    between atoms: _12  and  _14
REMARK    6  A    between atoms: _14  and  _15
REMARK    7  A    between atoms: _14  and  _17
REMARK    8  A    between atoms: _20  and  _22
REMARK    9  A    between atoms: _22  and  _23
REMARK   10  A    between atoms: _22  and  _25
REMARK   11  A    between atoms: _25  and  _26
REMARK   12  A    between atoms: _29  and  _31
REMARK   13  A    between atoms: _31  and  _32
REMARK   14  A    between atoms: _31  and  _34
REMARK   15  A    between atoms: _34  and  _35
REMARK   16  A    between atoms: _35  and  _36
REMARK   17  A    between atoms: _36  and  _37
REMARK   18  A    between atoms: _46  and  _48
REMARK   19  A    between atoms: _48  and  _49
REMARK   20  A    between atoms: _48  and  _51
REMARK   21  A    between atoms: _51  and  _52
REMARK   22  A    between atoms: _57  and  _59
REMARK   23  A    between atoms: _59  and  _60
REMARK   24  A    between atoms: _59  and  _62
REMARK   25  A    between atoms: _62  and  _63
REMARK   26  A    between atoms: _66  and  _68
REMARK   27  A    between atoms: _68  and  _69
REMARK   28  A    between atoms: _68  and  _71
REMARK   29  A    between atoms: _71  and  _72
REMARK   30  A    between atoms: _72  and  _107
REMARK   31  A    between atoms: _73  and  _75
REMARK   32  A    between atoms: _75  and  _76
REMARK   33  A    between atoms: _78  and  _80
REMARK   34  A    between atoms: _80  and  _81
REMARK   35  A    between atoms: _84  and  _86
REMARK   36  A    between atoms: _86  and  _87
REMARK   37  A    between atoms: _90  and  _92
REMARK   38  A    between atoms: _92  and  _93
REMARK   39  A    between atoms: _92  and  _95
REMARK   40  A    between atoms: _95  and  _96
REMARK   41  A    between atoms: _101  and  _103
REMARK   42  A    between atoms: _103  and  _104
REMARK   43  A    between atoms: _103  and  _106
REMARK   44  A    between atoms: _106  and  _107
REMARK   45  A    between atoms: _108  and  _110
REMARK   46  A    between atoms: _110  and  _111
REMARK   47  A    between atoms: _110  and  _113
REMARK   48  A    between atoms: _113  and  _114
REMARK   49  A    between atoms: _120  and  _122
REMARK   50  A    between atoms: _122  and  _123
REMARK   51  A    between atoms: _122  and  _125
REMARK   52  A    between atoms: _125  and  _126
REMARK   53  A    between atoms: _131  and  _132
REMARK   54  A    between atoms: _134  and  _136
REMARK   55  A    between atoms: _136  and  _137
REMARK   56  A    between atoms: _136  and  _139
REMARK   57  A    between atoms: _142  and  _144
REMARK   58  A    between atoms: _144  and  _145
REMARK   59  A    between atoms: _148  and  _150
REMARK   60  A    between atoms: _150  and  _151
REMARK   61  A    between atoms: _150  and  _153
REMARK   62  A    between atoms: _153  and  _154
REMARK   63  A    between atoms: _157  and  _159
REMARK   64  A    between atoms: _159  and  _160
REMARK   65  A    between atoms: _159  and  _162
REMARK   66  A    between atoms: _165  and  _167
REMARK   67  A    between atoms: _167  and  _168
REMARK   68  A    between atoms: _167  and  _170
REMARK   69  A    between atoms: _170  and  _171
REMARK   70  A    between atoms: _181  and  _183
REMARK   71  A    between atoms: _183  and  _184
REMARK   72  A    between atoms: _186  and  _188
REMARK   73  A    between atoms: _188  and  _189
REMARK   74  A    between atoms: _188  and  _191
REMARK   75  A    between atoms: _191  and  _192
REMARK   76  A    between atoms: _197  and  _198
REMARK   77  A    between atoms: _200  and  _202
REMARK   78  A    between atoms: _202  and  _203
REMARK   79  A    between atoms: _202  and  _205
REMARK   80  A    between atoms: _205  and  _206
REMARK   81  A    between atoms: _206  and  _207
REMARK   82  A    between atoms: _207  and  _208
REMARK   83  A    between atoms: _208  and  _209
REMARK   84  A    between atoms: _213  and  _215
REMARK   85  A    between atoms: _215  and  _216
REMARK   86  A    between atoms: _215  and  _218
REMARK   87  A    between atoms: _218  and  _219
REMARK   88  A    between atoms: _222  and  _224
REMARK   89  A    between atoms: _224  and  _225
REMARK   90  A    between atoms: _224  and  _227
REMARK   91  A    between atoms: _227  and  _228
REMARK   92  A    between atoms: _231  and  _233
REMARK   93  A    between atoms: _233  and  _234
REMARK   94  A    between atoms: _233  and  _236
REMARK   95  A    between atoms: _236  and  _237
REMARK   96  A    between atoms: _237  and  _238
REMARK   97  A    between atoms: _238  and  _239
REMARK   98  A    between atoms: _239  and  _240
REMARK   99  A    between atoms: _244  and  _246
REMARK  100  A    between atoms: _246  and  _247
REMARK  101  A    between atoms: _246  and  _249
REMARK  102  A    between atoms: _249  and  _250
REMARK  103  A    between atoms: _253  and  _255
REMARK  104  A    between atoms: _255  and  _256
REMARK  105  A    between atoms: _255  and  _258
REMARK  106  A    between atoms: _258  and  _259
REMARK  107  A    between atoms: _264  and  _265
REMARK  108  A    between atoms: _267  and  _269
REMARK  109  A    between atoms: _269  and  _270
REMARK  110  A    between atoms: _269  and  _272
REMARK  111  A    between atoms: _272  and  _273
REMARK  112  A    between atoms: _276  and  _278
REMARK  113  A    between atoms: _278  and  _279
REMARK  114  A    between atoms: _278  and  _281
REMARK  115  A    between atoms: _283  and  _285
REMARK  116  A    between atoms: _285  and  _286
REMARK  117  A    between atoms: _289  and  _291
REMARK  118  A    between atoms: _291  and  _292
REMARK  119  A    between atoms: _291  and  _294
REMARK  120  A    between atoms: _294  and  _295
REMARK  121  A    between atoms: _295  and  _296
REMARK  122  A    between atoms: _296  and  _297
REMARK  123  A    between atoms: _297  and  _298
REMARK  124  A    between atoms: _302  and  _304
REMARK  125  A    between atoms: _304  and  _305
REMARK  126  A    between atoms: _304  and  _307
REMARK  127  A    between atoms: _307  and  _308
REMARK  128  A    between atoms: _311  and  _313
REMARK  129  A    between atoms: _313  and  _314
REMARK  130  A    between atoms: _317  and  _319
REMARK  131  A    between atoms: _319  and  _320
REMARK  132  A    between atoms: _319  and  _322
REMARK  133  A    between atoms: _322  and  _323
REMARK  134  A    between atoms: _323  and  _437
REMARK  135  A    between atoms: _324  and  _326
REMARK  136  A    between atoms: _326  and  _327
REMARK  137  A    between atoms: _326  and  _329
REMARK  138  A    between atoms: _329  and  _330
REMARK  139  A    between atoms: _330  and  _331
REMARK  140  A    between atoms: _331  and  _332
REMARK  141  A    between atoms: _332  and  _333
REMARK  142  A    between atoms: _337  and  _339
REMARK  143  A    between atoms: _339  and  _340
REMARK  144  A    between atoms: _342  and  _344
REMARK  145  A    between atoms: _344  and  _345
REMARK  146  A    between atoms: _344  and  _347
REMARK  147  A    between atoms: _347  and  _348
REMARK  148  A    between atoms: _351  and  _353
REMARK  149  A    between atoms: _353  and  _354
REMARK  150  A    between atoms: _353  and  _356
REMARK  151  A    between atoms: _356  and  _357
REMARK  152  A    between atoms: _359  and  _361
REMARK  153  A    between atoms: _361  and  _362
REMARK  154  A    between atoms: _364  and  _366
REMARK  155  A    between atoms: _366  and  _367
REMARK  156  A    between atoms: _369  and  _371
REMARK  157  A    between atoms: _371  and  _372
REMARK  158  A    between atoms: _371  and  _374
REMARK  159  A    between atoms: _374  and  _375
REMARK  160  A    between atoms: _378  and  _380
REMARK  161  A    between atoms: _380  and  _381
REMARK  162  A    between atoms: _380  and  _383
REMARK  163  A    between atoms: _383  and  _384
REMARK  164  A    between atoms: _387  and  _389
REMARK  165  A    between atoms: _389  and  _390
REMARK  166  A    between atoms: _389  and  _392
REMARK  167  A    between atoms: _392  and  _393
REMARK  168  A    between atoms: _395  and  _397
REMARK  169  A    between atoms: _397  and  _398
REMARK  170  A    between atoms: _397  and  _400
REMARK  171  A    between atoms: _400  and  _401
REMARK  172  A    between atoms: _411  and  _413
REMARK  173  A    between atoms: _413  and  _414
REMARK  174  A    between atoms: _416  and  _418
REMARK  175  A    between atoms: _418  and  _419
REMARK  176  A    between atoms: _418  and  _421
REMARK  177  A    between atoms: _421  and  _422
REMARK  178  A    between atoms: _422  and  _423
REMARK  179  A    between atoms: _426  and  _428
REMARK  180  A    between atoms: _428  and  _429
REMARK  181  A    between atoms: _431  and  _433
REMARK  182  A    between atoms: _433  and  _434
REMARK  183  A    between atoms: _433  and  _436
REMARK  184  A    between atoms: _436  and  _437
REMARK  185  A    between atoms: _438  and  _440
REMARK  186  A    between atoms: _440  and  _441
REMARK  187  A    between atoms: _444  and  _446
REMARK  188  A    between atoms: _446  and  _447
REMARK  189  A    between atoms: _446  and  _449
REMARK  190  A    between atoms: _449  and  _450
REMARK  191  A    between atoms: _450  and  _451
REMARK  192  A    between atoms: _456  and  _458
REMARK  193  A    between atoms: _458  and  _459
REMARK  194  A    between atoms: _458  and  _461
REMARK  195  A    between atoms: _461  and  _462
REMARK  196  A    between atoms: _462  and  _463
REMARK  197  A    between atoms: _463  and  _464
REMARK  198  A    between atoms: _474  and  _475
REMARK  199  A    between atoms: _480  and  _482
REMARK  200  A    between atoms: _482  and  _483
REMARK  201  A    between atoms: _485  and  _487
REMARK  202  A    between atoms: _487  and  _488
REMARK  203  A    between atoms: _487  and  _490
REMARK  204  A    between atoms: _493  and  _495
REMARK  205  A    between atoms: _495  and  _496
REMARK  206  A    between atoms: _495  and  _498
REMARK  207  A    between atoms: _498  and  _499
REMARK  208  A    between atoms: _504  and  _505
REMARK  209  A    between atoms: _507  and  _509
REMARK  210  A    between atoms: _509  and  _510
REMARK  211  A    between atoms: _509  and  _512
REMARK  212  A    between atoms: _512  and  _513
REMARK                            x       y       z     vdW  Elec       q    Type
REMARK                         _______ _______ _______ _____ _____    ______ ____
ROOT
ATOM      1  O   HOH     1      34.624  -6.463  26.305  0.00  0.00    +0.000 OA
ENDROOT
TORSDOF 0
REMARK  Name = ../refined-set-2016/5e2o/5e2o_pocket.pdb
REMARK  212 active torsions:
REMARK  status: ('A' for Active; 'I' for Inactive)
REMARK    1  A    between atoms: _1  and  _5
REMARK    2  A    between atoms: _5  and  _6
REMARK    3  A    between atoms: _5  and  _8
REMARK    4  A    between atoms: _8  and  _9
REMARK    5  A    between atoms: _12  and  _14
REMARK    6  A    between atoms: _14  and  _15
REMARK    7  A    between atoms: _14  and  _17
REMARK    8  A    between atoms: _20  and  _22
REMARK    9  A    between atoms: _22  and  _23
REMARK   10  A    between atoms: _22  and  _25
REMARK   11  A    between atoms: _25  and  _26
REMARK   12  A    between atoms: _29  and  _31
REMARK   13  A    between atoms: _31  and  _32
REMARK   14  A    between atoms: _31  and  _34
REMARK   15  A    between atoms: _34  and  _35
REMARK   16  A    between atoms: _35  and  _36
REMARK   17  A    between atoms: _36  and  _37
REMARK   18  A    between atoms: _46  and  _48
REMARK   19  A    between atoms: _48  and  _49
REMARK   20  A    between atoms: _48  and  _51
REMARK   21  A    between atoms: _51  and  _52
REMARK   22  A    between atoms: _57  and  _59
REMARK   23  A    between atoms: _59  and  _60
REMARK   24  A    between atoms: _59  and  _62
REMARK   25  A    between atoms: _62  and  _63
REMARK   26  A    between atoms: _66  and  _68
REMARK   27  A    between atoms: _68  and  _69
REMARK   28  A    between atoms: _68  and  _71
REMARK   29  A    between atoms: _71  and  _72
REMARK   30  A    between atoms: _72  and  _107
REMARK   31  A    between atoms: _73  and  _75
REMARK   32  A    between atoms: _75  and  _76
REMARK   33  A    between atoms: _78  and  _80
REMARK   34  A    between atoms: _80  and  _81
REMARK   35  A    between atoms: _84  and  _86
REMARK   36  A    between atoms: _86  and  _87
REMARK   37  A    between atoms: _90  and  _92
REMARK   38  A    between atoms: _92  and  _93
REMARK   39  A    between atoms: _92  and  _95
REMARK   40  A    between atoms: _95  and  _96
REMARK   41  A    between atoms: _101  and  _103
REMARK   42  A    between atoms: _103  and  _104
REMARK   43  A    between atoms: _103  and  _106
REMARK   44  A    between atoms: _106  and  _107
REMARK   45  A    between atoms: _108  and  _110
REMARK   46  A    between atoms: _110  and  _111
REMARK   47  A    between atoms: _110  and  _113
REMARK   48  A    between atoms: _113  and  _114
REMARK   49  A    between atoms: _120  and  _122
REMARK   50  A    between atoms: _122  and  _123
REMARK   51  A    between atoms: _122  and  _125
REMARK   52  A    between atoms: _125  and  _126
REMARK   53  A    between atoms: _131  and  _132
REMARK   54  A    between atoms: _134  and  _136
REMARK   55  A    between atoms: _136  and  _137
REMARK   56  A    between atoms: _136  and  _139
REMARK   57  A    between atoms: _142  and  _144
REMARK   58  A    between atoms: _144  and  _145
REMARK   59  A    between atoms: _148  and  _150
REMARK   60  A    between atoms: _150  and  _151
REMARK   61  A    between atoms: _150  and  _153
REMARK   62  A    between atoms: _153  and  _154
REMARK   63  A    between atoms: _157  and  _159
REMARK   64  A    between atoms: _159  and  _160
REMARK   65  A    between atoms: _159  and  _162
REMARK   66  A    between atoms: _165  and  _167
REMARK   67  A    between atoms: _167  and  _168
REMARK   68  A    between atoms: _167  and  _170
REMARK   69  A    between atoms: _170  and  _171
REMARK   70  A    between atoms: _181  and  _183
REMARK   71  A    between atoms: _183  and  _184
REMARK   72  A    between atoms: _186  and  _188
REMARK   73  A    between atoms: _188  and  _189
REMARK   74  A    between atoms: _188  and  _191
REMARK   75  A    between atoms: _191  and  _192
REMARK   76  A    between atoms: _197  and  _198
REMARK   77  A    between atoms: _200  and  _202
REMARK   78  A    between atoms: _202  and  _203
REMARK   79  A    between atoms: _202  and  _205
REMARK   80  A    between atoms: _205  and  _206
REMARK   81  A    between atoms: _206  and  _207
REMARK   82  A    between atoms: _207  and  _208
REMARK   83  A    between atoms: _208  and  _209
REMARK   84  A    between atoms: _213  and  _215
REMARK   85  A    between atoms: _215  and  _216
REMARK   86  A    between atoms: _215  and  _218
REMARK   87  A    between atoms: _218  and  _219
REMARK   88  A    between atoms: _222  and  _224
REMARK   89  A    between atoms: _224  and  _225
REMARK   90  A    between atoms: _224  and  _227
REMARK   91  A    between atoms: _227  and  _228
REMARK   92  A    between atoms: _231  and  _233
REMARK   93  A    between atoms: _233  and  _234
REMARK   94  A    between atoms: _233  and  _236
REMARK   95  A    between atoms: _236  and  _237
REMARK   96  A    between atoms: _237  and  _238
REMARK   97  A    between atoms: _238  and  _239
REMARK   98  A    between atoms: _239  and  _240
REMARK   99  A    between atoms: _244  and  _246
REMARK  100  A    between atoms: _246  and  _247
REMARK  101  A    between atoms: _246  and  _249
REMARK  102  A    between atoms: _249  and  _250
REMARK  103  A    between atoms: _253  and  _255
REMARK  104  A    between atoms: _255  and  _256
REMARK  105  A    between atoms: _255  and  _258
REMARK  106  A    between atoms: _258  and  _259
REMARK  107  A    between atoms: _264  and  _265
REMARK  108  A    between atoms: _267  and  _269
REMARK  109  A    between atoms: _269  and  _270
REMARK  110  A    between atoms: _269  and  _272
REMARK  111  A    between atoms: _272  and  _273
REMARK  112  A    between atoms: _276  and  _278
REMARK  113  A    between atoms: _278  and  _279
REMARK  114  A    between atoms: _278  and  _281
REMARK  115  A    between atoms: _283  and  _285
REMARK  116  A    between atoms: _285  and  _286
REMARK  117  A    between atoms: _289  and  _291
REMARK  118  A    between atoms: _291  and  _292
REMARK  119  A    between atoms: _291  and  _294
REMARK  120  A    between atoms: _294  and  _295
REMARK  121  A    between atoms: _295  and  _296
REMARK  122  A    between atoms: _296  and  _297
REMARK  123  A    between atoms: _297  and  _298
REMARK  124  A    between atoms: _302  and  _304
REMARK  125  A    between atoms: _304  and  _305
REMARK  126  A    between atoms: _304  and  _307
REMARK  127  A    between atoms: _307  and  _308
REMARK  128  A    between atoms: _311  and  _313
REMARK  129  A    between atoms: _313  and  _314
REMARK  130  A    between atoms: _317  and  _319
REMARK  131  A    between atoms: _319  and  _320
REMARK  132  A    between atoms: _319  and  _322
REMARK  133  A    between atoms: _322  and  _323
REMARK  134  A    between atoms: _323  and  _437
REMARK  135  A    between atoms: _324  and  _326
REMARK  136  A    between atoms: _326  and  _327
REMARK  137  A    between atoms: _326  and  _329
REMARK  138  A    between atoms: _329  and  _330
REMARK  139  A    between atoms: _330  and  _331
REMARK  140  A    between atoms: _331  and  _332
REMARK  141  A    between atoms: _332  and  _333
REMARK  142  A    between atoms: _337  and  _339
REMARK  143  A    between atoms: _339  and  _340
REMARK  144  A    between atoms: _342  and  _344
REMARK  145  A    between atoms: _344  and  _345
REMARK  146  A    between atoms: _344  and  _347
REMARK  147  A    between atoms: _347  and  _348
REMARK  148  A    between atoms: _351  and  _353
REMARK  149  A    between atoms: _353  and  _354
REMARK  150  A    between atoms: _353  and  _356
REMARK  151  A    between atoms: _356  and  _357
REMARK  152  A    between atoms: _359  and  _361
REMARK  153  A    between atoms: _361  and  _362
REMARK  154  A    between atoms: _364  and  _366
REMARK  155  A    between atoms: _366  and  _367
REMARK  156  A    between atoms: _369  and  _371
REMARK  157  A    between atoms: _371  and  _372
REMARK  158  A    between atoms: _371  and  _374
REMARK  159  A    between atoms: _374  and  _375
REMARK  160  A    between atoms: _378  and  _380
REMARK  161  A    between atoms: _380  and  _381
REMARK  162  A    between atoms: _380  and  _383
REMARK  163  A    between atoms: _383  and  _384
REMARK  164  A    between atoms: _387  and  _389
REMARK  165  A    between atoms: _389  and  _390
REMARK  166  A    between atoms: _389  and  _392
REMARK  167  A    between atoms: _392  and  _393
REMARK  168  A    between atoms: _395  and  _397
REMARK  169  A    between atoms: _397  and  _398
REMARK  170  A    between atoms: _397  and  _400
REMARK  171  A    between atoms: _400  and  _401
REMARK  172  A    between atoms: _411  and  _413
REMARK  173  A    between atoms: _413  and  _414
REMARK  174  A    between atoms: _416  and  _418
REMARK  175  A    between atoms: _418  and  _419
REMARK  176  A    between atoms: _418  and  _421
REMARK  177  A    between atoms: _421  and  _422
REMARK  178  A    between atoms: _422  and  _423
REMARK  179  A    between atoms: _426  and  _428
REMARK  180  A    between atoms: _428  and  _429
REMARK  181  A    between atoms: _431  and  _433
REMARK  182  A    between atoms: _433  and  _434
REMARK  183  A    between atoms: _433  and  _436
REMARK  184  A    between atoms: _436  and  _437
REMARK  185  A    between atoms: _438  and  _440
REMARK  186  A    between atoms: _440  and  _441
REMARK  187  A    between atoms: _444  and  _446
REMARK  188  A    between atoms: _446  and  _447
REMARK  189  A    between atoms: _446  and  _449
REMARK  190  A    between atoms: _449  and  _450
REMARK  191  A    between atoms: _450  and  _451
REMARK  192  A    between atoms: _456  and  _458
REMARK  193  A    between atoms: _458  and  _459
REMARK  194  A    between atoms: _458  and  _461
REMARK  195  A    between atoms: _461  and  _462
REMARK  196  A    between atoms: _462  and  _463
REMARK  197  A    between atoms: _463  and  _464
REMARK  198  A    between atoms: _474  and  _475
REMARK  199  A    between atoms: _480  and  _482
REMARK  200  A    between atoms: _482  and  _483
REMARK  201  A    between atoms: _485  and  _487
REMARK  202  A    between atoms: _487  and  _488
REMARK  203  A    between atoms: _487  and  _490
REMARK  204  A    between atoms: _493  and  _495
REMARK  205  A    between atoms: _495  and  _496
REMARK  206  A    between atoms: _495  and  _498
REMARK  207  A    between atoms: _498  and  _499
REMARK  208  A    between atoms: _504  and  _505
REMARK  209  A    between atoms: _507  and  _509
REMARK  210  A    between atoms: _509  and  _510
REMARK  211  A    between atoms: _509  and  _512
REMARK  212  A    between atoms: _512  and  _513
REMARK                            x       y       z     vdW  Elec       q    Type
REMARK                         _______ _______ _______ _____ _____    ______ ____
ROOT
ATOM      1  O   HOH     1      39.817 -11.693  18.809  0.00  0.00    +0.000 OA
ENDROOT
TORSDOF 0
REMARK  Name = ../refined-set-2016/5e2o/5e2o_pocket.pdb
REMARK  212 active torsions:
REMARK  status: ('A' for Active; 'I' for Inactive)
REMARK    1  A    between atoms: _1  and  _5
REMARK    2  A    between atoms: _5  and  _6
REMARK    3  A    between atoms: _5  and  _8
REMARK    4  A    between atoms: _8  and  _9
REMARK    5  A    between atoms: _12  and  _14
REMARK    6  A    between atoms: _14  and  _15
REMARK    7  A    between atoms: _14  and  _17
REMARK    8  A    between atoms: _20  and  _22
REMARK    9  A    between atoms: _22  and  _23
REMARK   10  A    between atoms: _22  and  _25
REMARK   11  A    between atoms: _25  and  _26
REMARK   12  A    between atoms: _29  and  _31
REMARK   13  A    between atoms: _31  and  _32
REMARK   14  A    between atoms: _31  and  _34
REMARK   15  A    between atoms: _34  and  _35
REMARK   16  A    between atoms: _35  and  _36
REMARK   17  A    between atoms: _36  and  _37
REMARK   18  A    between atoms: _46  and  _48
REMARK   19  A    between atoms: _48  and  _49
REMARK   20  A    between atoms: _48  and  _51
REMARK   21  A    between atoms: _51  and  _52
REMARK   22  A    between atoms: _57  and  _59
REMARK   23  A    between atoms: _59  and  _60
REMARK   24  A    between atoms: _59  and  _62
REMARK   25  A    between atoms: _62  and  _63
REMARK   26  A    between atoms: _66  and  _68
REMARK   27  A    between atoms: _68  and  _69
REMARK   28  A    between atoms: _68  and  _71
REMARK   29  A    between atoms: _71  and  _72
REMARK   30  A    between atoms: _72  and  _107
REMARK   31  A    between atoms: _73  and  _75
REMARK   32  A    between atoms: _75  and  _76
REMARK   33  A    between atoms: _78  and  _80
REMARK   34  A    between atoms: _80  and  _81
REMARK   35  A    between atoms: _84  and  _86
REMARK   36  A    between atoms: _86  and  _87
REMARK   37  A    between atoms: _90  and  _92
REMARK   38  A    between atoms: _92  and  _93
REMARK   39  A    between atoms: _92  and  _95
REMARK   40  A    between atoms: _95  and  _96
REMARK   41  A    between atoms: _101  and  _103
REMARK   42  A    between atoms: _103  and  _104
REMARK   43  A    between atoms: _103  and  _106
REMARK   44  A    between atoms: _106  and  _107
REMARK   45  A    between atoms: _108  and  _110
REMARK   46  A    between atoms: _110  and  _111
REMARK   47  A    between atoms: _110  and  _113
REMARK   48  A    between atoms: _113  and  _114
REMARK   49  A    between atoms: _120  and  _122
REMARK   50  A    between atoms: _122  and  _123
REMARK   51  A    between atoms: _122  and  _125
REMARK   52  A    between atoms: _125  and  _126
REMARK   53  A    between atoms: _131  and  _132
REMARK   54  A    between atoms: _134  and  _136
REMARK   55  A    between atoms: _136  and  _137
REMARK   56  A    between atoms: _136  and  _139
REMARK   57  A    between atoms: _142  and  _144
REMARK   58  A    between atoms: _144  and  _145
REMARK   59  A    between atoms: _148  and  _150
REMARK   60  A    between atoms: _150  and  _151
REMARK   61  A    between atoms: _150  and  _153
REMARK   62  A    between atoms: _153  and  _154
REMARK   63  A    between atoms: _157  and  _159
REMARK   64  A    between atoms: _159  and  _160
REMARK   65  A    between atoms: _159  and  _162
REMARK   66  A    between atoms: _165  and  _167
REMARK   67  A    between atoms: _167  and  _168
REMARK   68  A    between atoms: _167  and  _170
REMARK   69  A    between atoms: _170  and  _171
REMARK   70  A    between atoms: _181  and  _183
REMARK   71  A    between atoms: _183  and  _184
REMARK   72  A    between atoms: _186  and  _188
REMARK   73  A    between atoms: _188  and  _189
REMARK   74  A    between atoms: _188  and  _191
REMARK   75  A    between atoms: _191  and  _192
REMARK   76  A    between atoms: _197  and  _198
REMARK   77  A    between atoms: _200  and  _202
REMARK   78  A    between atoms: _202  and  _203
REMARK   79  A    between atoms: _202  and  _205
REMARK   80  A    between atoms: _205  and  _206
REMARK   81  A    between atoms: _206  and  _207
REMARK   82  A    between atoms: _207  and  _208
REMARK   83  A    between atoms: _208  and  _209
REMARK   84  A    between atoms: _213  and  _215
REMARK   85  A    between atoms: _215  and  _216
REMARK   86  A    between atoms: _215  and  _218
REMARK   87  A    between atoms: _218  and  _219
REMARK   88  A    between atoms: _222  and  _224
REMARK   89  A    between atoms: _224  and  _225
REMARK   90  A    between atoms: _224  and  _227
REMARK   91  A    between atoms: _227  and  _228
REMARK   92  A    between atoms: _231  and  _233
REMARK   93  A    between atoms: _233  and  _234
REMARK   94  A    between atoms: _233  and  _236
REMARK   95  A    between atoms: _236  and  _237
REMARK   96  A    between atoms: _237  and  _238
REMARK   97  A    between atoms: _238  and  _239
REMARK   98  A    between atoms: _239  and  _240
REMARK   99  A    between atoms: _244  and  _246
REMARK  100  A    between atoms: _246  and  _247
REMARK  101  A    between atoms: _246  and  _249
REMARK  102  A    between atoms: _249  and  _250
REMARK  103  A    between atoms: _253  and  _255
REMARK  104  A    between atoms: _255  and  _256
REMARK  105  A    between atoms: _255  and  _258
REMARK  106  A    between atoms: _258  and  _259
REMARK  107  A    between atoms: _264  and  _265
REMARK  108  A    between atoms: _267  and  _269
REMARK  109  A    between atoms: _269  and  _270
REMARK  110  A    between atoms: _269  and  _272
REMARK  111  A    between atoms: _272  and  _273
REMARK  112  A    between atoms: _276  and  _278
REMARK  113  A    between atoms: _278  and  _279
REMARK  114  A    between atoms: _278  and  _281
REMARK  115  A    between atoms: _283  and  _285
REMARK  116  A    between atoms: _285  and  _286
REMARK  117  A    between atoms: _289  and  _291
REMARK  118  A    between atoms: _291  and  _292
REMARK  119  A    between atoms: _291  and  _294
REMARK  120  A    between atoms: _294  and  _295
REMARK  121  A    between atoms: _295  and  _296
REMARK  122  A    between atoms: _296  and  _297
REMARK  123  A    between atoms: _297  and  _298
REMARK  124  A    between atoms: _302  and  _304
REMARK  125  A    between atoms: _304  and  _305
REMARK  126  A    between atoms: _304  and  _307
REMARK  127  A    between atoms: _307  and  _308
REMARK  128  A    between atoms: _311  and  _313
REMARK  129  A    between atoms: _313  and  _314
REMARK  130  A    between atoms: _317  and  _319
REMARK  131  A    between atoms: _319  and  _320
REMARK  132  A    between atoms: _319  and  _322
REMARK  133  A    between atoms: _322  and  _323
REMARK  134  A    between atoms: _323  and  _437
REMARK  135  A    between atoms: _324  and  _326
REMARK  136  A    between atoms: _326  and  _327
REMARK  137  A    between atoms: _326  and  _329
REMARK  138  A    between atoms: _329  and  _330
REMARK  139  A    between atoms: _330  and  _331
REMARK  140  A    between atoms: _331  and  _332
REMARK  141  A    between atoms: _332  and  _333
REMARK  142  A    between atoms: _337  and  _339
REMARK  143  A    between atoms: _339  and  _340
REMARK  144  A    between atoms: _342  and  _344
REMARK  145  A    between atoms: _344  and  _345
REMARK  146  A    between atoms: _344  and  _347
REMARK  147  A    between atoms: _347  and  _348
REMARK  148  A    between atoms: _351  and  _353
REMARK  149  A    between atoms: _353  and  _354
REMARK  150  A    between atoms: _353  and  _356
REMARK  151  A    between atoms: _356  and  _357
REMARK  152  A    between atoms: _359  and  _361
REMARK  153  A    between atoms: _361  and  _362
REMARK  154  A    between atoms: _364  and  _366
REMARK  155  A    between atoms: _366  and  _367
REMARK  156  A    between atoms: _369  and  _371
REMARK  157  A    between atoms: _371  and  _372
REMARK  158  A    between atoms: _371  and  _374
REMARK  159  A    between atoms: _374  and  _375
REMARK  160  A    between atoms: _378  and  _380
REMARK  161  A    between atoms: _380  and  _381
REMARK  162  A    between atoms: _380  and  _383
REMARK  163  A    between atoms: _383  and  _384
REMARK  164  A    between atoms: _387  and  _389
REMARK  165  A    between atoms: _389  and  _390
REMARK  166  A    between atoms: _389  and  _392
REMARK  167  A    between atoms: _392  and  _393
REMARK  168  A    between atoms: _395  and  _397
REMARK  169  A    between atoms: _397  and  _398
REMARK  170  A    between atoms: _397  and  _400
REMARK  171  A    between atoms: _400  and  _401
REMARK  172  A    between atoms: _411  and  _413
REMARK  173  A    between atoms: _413  and  _414
REMARK  174  A    between atoms: _416  and  _418
REMARK  175  A    between atoms: _418  and  _419
REMARK  176  A    between atoms: _418  and  _421
REMARK  177  A    between atoms: _421  and  _422
REMARK  178  A    between atoms: _422  and  _423
REMARK  179  A    between atoms: _426  and  _428
REMARK  180  A    between atoms: _428  and  _429
REMARK  181  A    between atoms: _431  and  _433
REMARK  182  A    between atoms: _433  and  _434
REMARK  183  A    between atoms: _433  and  _436
REMARK  184  A    between atoms: _436  and  _437
REMARK  185  A    between atoms: _438  and  _440
REMARK  186  A    between atoms: _440  and  _441
REMARK  187  A    between atoms: _444  and  _446
REMARK  188  A    between atoms: _446  and  _447
REMARK  189  A    between atoms: _446  and  _449
REMARK  190  A    between atoms: _449  and  _450
REMARK  191  A    between atoms: _450  and  _451
REMARK  192  A    between atoms: _456  and  _458
REMARK  193  A    between atoms: _458  and  _459
REMARK  194  A    between atoms: _458  and  _461
REMARK  195  A    between atoms: _461  and  _462
REMARK  196  A    between atoms: _462  and  _463
REMARK  197  A    between atoms: _463  and  _464
REMARK  198  A    between atoms: _474  and  _475
REMARK  199  A    between atoms: _480  and  _482
REMARK  200  A    between atoms: _482  and  _483
REMARK  201  A    between atoms: _485  and  _487
REMARK  202  A    between atoms: _487  and  _488
REMARK  203  A    between atoms: _487  and  _490
REMARK  204  A    between atoms: _493  and  _495
REMARK  205  A    between atoms: _495  and  _496
REMARK  206  A    between atoms: _495  and  _498
REMARK  207  A    between atoms: _498  and  _499
REMARK  208  A    between atoms: _504  and  _505
REMARK  209  A    between atoms: _507  and  _509
REMARK  210  A    between atoms: _509  and  _510
REMARK  211  A    between atoms: _509  and  _512
REMARK  212  A    between atoms: _512  and  _513
REMARK                            x       y       z     vdW  Elec       q    Type
REMARK                         _______ _______ _______ _____ _____    ______ ____
ROOT
ATOM      1  O   HOH     1      34.873 -10.848  25.482  0.00  0.00    +0.000 OA
ENDROOT
TORSDOF 0
REMARK  Name = ../refined-set-2016/5e2o/5e2o_pocket.pdb
REMARK  212 active torsions:
REMARK  status: ('A' for Active; 'I' for Inactive)
REMARK    1  A    between atoms: _1  and  _5
REMARK    2  A    between atoms: _5  and  _6
REMARK    3  A    between atoms: _5  and  _8
REMARK    4  A    between atoms: _8  and  _9
REMARK    5  A    between atoms: _12  and  _14
REMARK    6  A    between atoms: _14  and  _15
REMARK    7  A    between atoms: _14  and  _17
REMARK    8  A    between atoms: _20  and  _22
REMARK    9  A    between atoms: _22  and  _23
REMARK   10  A    between atoms: _22  and  _25
REMARK   11  A    between atoms: _25  and  _26
REMARK   12  A    between atoms: _29  and  _31
REMARK   13  A    between atoms: _31  and  _32
REMARK   14  A    between atoms: _31  and  _34
REMARK   15  A    between atoms: _34  and  _35
REMARK   16  A    between atoms: _35  and  _36
REMARK   17  A    between atoms: _36  and  _37
REMARK   18  A    between atoms: _46  and  _48
REMARK   19  A    between atoms: _48  and  _49
REMARK   20  A    between atoms: _48  and  _51
REMARK   21  A    between atoms: _51  and  _52
REMARK   22  A    between atoms: _57  and  _59
REMARK   23  A    between atoms: _59  and  _60
REMARK   24  A    between atoms: _59  and  _62
REMARK   25  A    between atoms: _62  and  _63
REMARK   26  A    between atoms: _66  and  _68
REMARK   27  A    between atoms: _68  and  _69
REMARK   28  A    between atoms: _68  and  _71
REMARK   29  A    between atoms: _71  and  _72
REMARK   30  A    between atoms: _72  and  _107
REMARK   31  A    between atoms: _73  and  _75
REMARK   32  A    between atoms: _75  and  _76
REMARK   33  A    between atoms: _78  and  _80
REMARK   34  A    between atoms: _80  and  _81
REMARK   35  A    between atoms: _84  and  _86
REMARK   36  A    between atoms: _86  and  _87
REMARK   37  A    between atoms: _90  and  _92
REMARK   38  A    between atoms: _92  and  _93
REMARK   39  A    between atoms: _92  and  _95
REMARK   40  A    between atoms: _95  and  _96
REMARK   41  A    between atoms: _101  and  _103
REMARK   42  A    between atoms: _103  and  _104
REMARK   43  A    between atoms: _103  and  _106
REMARK   44  A    between atoms: _106  and  _107
REMARK   45  A    between atoms: _108  and  _110
REMARK   46  A    between atoms: _110  and  _111
REMARK   47  A    between atoms: _110  and  _113
REMARK   48  A    between atoms: _113  and  _114
REMARK   49  A    between atoms: _120  and  _122
REMARK   50  A    between atoms: _122  and  _123
REMARK   51  A    between atoms: _122  and  _125
REMARK   52  A    between atoms: _125  and  _126
REMARK   53  A    between atoms: _131  and  _132
REMARK   54  A    between atoms: _134  and  _136
REMARK   55  A    between atoms: _136  and  _137
REMARK   56  A    between atoms: _136  and  _139
REMARK   57  A    between atoms: _142  and  _144
REMARK   58  A    between atoms: _144  and  _145
REMARK   59  A    between atoms: _148  and  _150
REMARK   60  A    between atoms: _150  and  _151
REMARK   61  A    between atoms: _150  and  _153
REMARK   62  A    between atoms: _153  and  _154
REMARK   63  A    between atoms: _157  and  _159
REMARK   64  A    between atoms: _159  and  _160
REMARK   65  A    between atoms: _159  and  _162
REMARK   66  A    between atoms: _165  and  _167
REMARK   67  A    between atoms: _167  and  _168
REMARK   68  A    between atoms: _167  and  _170
REMARK   69  A    between atoms: _170  and  _171
REMARK   70  A    between atoms: _181  and  _183
REMARK   71  A    between atoms: _183  and  _184
REMARK   72  A    between atoms: _186  and  _188
REMARK   73  A    between atoms: _188  and  _189
REMARK   74  A    between atoms: _188  and  _191
REMARK   75  A    between atoms: _191  and  _192
REMARK   76  A    between atoms: _197  and  _198
REMARK   77  A    between atoms: _200  and  _202
REMARK   78  A    between atoms: _202  and  _203
REMARK   79  A    between atoms: _202  and  _205
REMARK   80  A    between atoms: _205  and  _206
REMARK   81  A    between atoms: _206  and  _207
REMARK   82  A    between atoms: _207  and  _208
REMARK   83  A    between atoms: _208  and  _209
REMARK   84  A    between atoms: _213  and  _215
REMARK   85  A    between atoms: _215  and  _216
REMARK   86  A    between atoms: _215  and  _218
REMARK   87  A    between atoms: _218  and  _219
REMARK   88  A    between atoms: _222  and  _224
REMARK   89  A    between atoms: _224  and  _225
REMARK   90  A    between atoms: _224  and  _227
REMARK   91  A    between atoms: _227  and  _228
REMARK   92  A    between atoms: _231  and  _233
REMARK   93  A    between atoms: _233  and  _234
REMARK   94  A    between atoms: _233  and  _236
REMARK   95  A    between atoms: _236  and  _237
REMARK   96  A    between atoms: _237  and  _238
REMARK   97  A    between atoms: _238  and  _239
REMARK   98  A    between atoms: _239  and  _240
REMARK   99  A    between atoms: _244  and  _246
REMARK  100  A    between atoms: _246  and  _247
REMARK  101  A    between atoms: _246  and  _249
REMARK  102  A    between atoms: _249  and  _250
REMARK  103  A    between atoms: _253  and  _255
REMARK  104  A    between atoms: _255  and  _256
REMARK  105  A    between atoms: _255  and  _258
REMARK  106  A    between atoms: _258  and  _259
REMARK  107  A    between atoms: _264  and  _265
REMARK  108  A    between atoms: _267  and  _269
REMARK  109  A    between atoms: _269  and  _270
REMARK  110  A    between atoms: _269  and  _272
REMARK  111  A    between atoms: _272  and  _273
REMARK  112  A    between atoms: _276  and  _278
REMARK  113  A    between atoms: _278  and  _279
REMARK  114  A    between atoms: _278  and  _281
REMARK  115  A    between atoms: _283  and  _285
REMARK  116  A    between atoms: _285  and  _286
REMARK  117  A    between atoms: _289  and  _291
REMARK  118  A    between atoms: _291  and  _292
REMARK  119  A    between atoms: _291  and  _294
REMARK  120  A    between atoms: _294  and  _295
REMARK  121  A    between atoms: _295  and  _296
REMARK  122  A    between atoms: _296  and  _297
REMARK  123  A    between atoms: _297  and  _298
REMARK  124  A    between atoms: _302  and  _304
REMARK  125  A    between atoms: _304  and  _305
REMARK  126  A    between atoms: _304  and  _307
REMARK  127  A    between atoms: _307  and  _308
REMARK  128  A    between atoms: _311  and  _313
REMARK  129  A    between atoms: _313  and  _314
REMARK  130  A    between atoms: _317  and  _319
REMARK  131  A    between atoms: _319  and  _320
REMARK  132  A    between atoms: _319  and  _322
REMARK  133  A    between atoms: _322  and  _323
REMARK  134  A    between atoms: _323  and  _437
REMARK  135  A    between atoms: _324  and  _326
REMARK  136  A    between atoms: _326  and  _327
REMARK  137  A    between atoms: _326  and  _329
REMARK  138  A    between atoms: _329  and  _330
REMARK  139  A    between atoms: _330  and  _331
REMARK  140  A    between atoms: _331  and  _332
REMARK  141  A    between atoms: _332  and  _333
REMARK  142  A    between atoms: _337  and  _339
REMARK  143  A    between atoms: _339  and  _340
REMARK  144  A    between atoms: _342  and  _344
REMARK  145  A    between atoms: _344  and  _345
REMARK  146  A    between atoms: _344  and  _347
REMARK  147  A    between atoms: _347  and  _348
REMARK  148  A    between atoms: _351  and  _353
REMARK  149  A    between atoms: _353  and  _354
REMARK  150  A    between atoms: _353  and  _356
REMARK  151  A    between atoms: _356  and  _357
REMARK  152  A    between atoms: _359  and  _361
REMARK  153  A    between atoms: _361  and  _362
REMARK  154  A    between atoms: _364  and  _366
REMARK  155  A    between atoms: _366  and  _367
REMARK  156  A    between atoms: _369  and  _371
REMARK  157  A    between atoms: _371  and  _372
REMARK  158  A    between atoms: _371  and  _374
REMARK  159  A    between atoms: _374  and  _375
REMARK  160  A    between atoms: _378  and  _380
REMARK  161  A    between atoms: _380  and  _381
REMARK  162  A    between atoms: _380  and  _383
REMARK  163  A    between atoms: _383  and  _384
REMARK  164  A    between atoms: _387  and  _389
REMARK  165  A    between atoms: _389  and  _390
REMARK  166  A    between atoms: _389  and  _392
REMARK  167  A    between atoms: _392  and  _393
REMARK  168  A    between atoms: _395  and  _397
REMARK  169  A    between atoms: _397  and  _398
REMARK  170  A    between atoms: _397  and  _400
REMARK  171  A    between atoms: _400  and  _401
REMARK  172  A    between atoms: _411  and  _413
REMARK  173  A    between atoms: _413  and  _414
REMARK  174  A    between atoms: _416  and  _418
REMARK  175  A    between atoms: _418  and  _419
REMARK  176  A    between atoms: _418  and  _421
REMARK  177  A    between atoms: _421  and  _422
REMARK  178  A    between atoms: _422  and  _423
REMARK  179  A    between atoms: _426  and  _428
REMARK  180  A    between atoms: _428  and  _429
REMARK  181  A    between atoms: _431  and  _433
REMARK  182  A    between atoms: _433  and  _434
REMARK  183  A    between atoms: _433  and  _436
REMARK  184  A    between atoms: _436  and  _437
REMARK  185  A    between atoms: _438  and  _440
REMARK  186  A    between atoms: _440  and  _441
REMARK  187  A    between atoms: _444  and  _446
REMARK  188  A    between atoms: _446  and  _447
REMARK  189  A    between atoms: _446  and  _449
REMARK  190  A    between atoms: _449  and  _450
REMARK  191  A    between atoms: _450  and  _451
REMARK  192  A    between atoms: _456  and  _458
REMARK  193  A    between atoms: _458  and  _459
REMARK  194  A    between atoms: _458  and  _461
REMARK  195  A    between atoms: _461  and  _462
REMARK  196  A    between atoms: _462  and  _463
REMARK  197  A    between atoms: _463  and  _464
REMARK  198  A    between atoms: _474  and  _475
REMARK  199  A    between atoms: _480  and  _482
REMARK  200  A    between atoms: _482  and  _483
REMARK  201  A    between atoms: _485  and  _487
REMARK  202  A    between atoms: _487  and  _488
REMARK  203  A    between atoms: _487  and  _490
REMARK  204  A    between atoms: _493  and  _495
REMARK  205  A    between atoms: _495  and  _496
REMARK  206  A    between atoms: _495  and  _498
REMARK  207  A    between atoms: _498  and  _499
REMARK  208  A    between atoms: _504  and  _505
REMARK  209  A    between atoms: _507  and  _509
REMARK  210  A    between atoms: _509  and  _510
REMARK  211  A    between atoms: _509  and  _512
REMARK  212  A    between atoms: _512  and  _513
REMARK                            x       y       z     vdW  Elec       q    Type
REMARK                         _______ _______ _______ _____ _____    ______ ____
ROOT
ATOM      1  O   HOH     1      36.504 -17.542  24.719  0.00  0.00    +0.000 OA
ENDROOT
TORSDOF 0
REMARK  Name = ../refined-set-2016/5e2o/5e2o_pocket.pdb
REMARK  212 active torsions:
REMARK  status: ('A' for Active; 'I' for Inactive)
REMARK    1  A    between atoms: _1  and  _5
REMARK    2  A    between atoms: _5  and  _6
REMARK    3  A    between atoms: _5  and  _8
REMARK    4  A    between atoms: _8  and  _9
REMARK    5  A    between atoms: _12  and  _14
REMARK    6  A    between atoms: _14  and  _15
REMARK    7  A    between atoms: _14  and  _17
REMARK    8  A    between atoms: _20  and  _22
REMARK    9  A    between atoms: _22  and  _23
REMARK   10  A    between atoms: _22  and  _25
REMARK   11  A    between atoms: _25  and  _26
REMARK   12  A    between atoms: _29  and  _31
REMARK   13  A    between atoms: _31  and  _32
REMARK   14  A    between atoms: _31  and  _34
REMARK   15  A    between atoms: _34  and  _35
REMARK   16  A    between atoms: _35  and  _36
REMARK   17  A    between atoms: _36  and  _37
REMARK   18  A    between atoms: _46  and  _48
REMARK   19  A    between atoms: _48  and  _49
REMARK   20  A    between atoms: _48  and  _51
REMARK   21  A    between atoms: _51  and  _52
REMARK   22  A    between atoms: _57  and  _59
REMARK   23  A    between atoms: _59  and  _60
REMARK   24  A    between atoms: _59  and  _62
REMARK   25  A    between atoms: _62  and  _63
REMARK   26  A    between atoms: _66  and  _68
REMARK   27  A    between atoms: _68  and  _69
REMARK   28  A    between atoms: _68  and  _71
REMARK   29  A    between atoms: _71  and  _72
REMARK   30  A    between atoms: _72  and  _107
REMARK   31  A    between atoms: _73  and  _75
REMARK   32  A    between atoms: _75  and  _76
REMARK   33  A    between atoms: _78  and  _80
REMARK   34  A    between atoms: _80  and  _81
REMARK   35  A    between atoms: _84  and  _86
REMARK   36  A    between atoms: _86  and  _87
REMARK   37  A    between atoms: _90  and  _92
REMARK   38  A    between atoms: _92  and  _93
REMARK   39  A    between atoms: _92  and  _95
REMARK   40  A    between atoms: _95  and  _96
REMARK   41  A    between atoms: _101  and  _103
REMARK   42  A    between atoms: _103  and  _104
REMARK   43  A    between atoms: _103  and  _106
REMARK   44  A    between atoms: _106  and  _107
REMARK   45  A    between atoms: _108  and  _110
REMARK   46  A    between atoms: _110  and  _111
REMARK   47  A    between atoms: _110  and  _113
REMARK   48  A    between atoms: _113  and  _114
REMARK   49  A    between atoms: _120  and  _122
REMARK   50  A    between atoms: _122  and  _123
REMARK   51  A    between atoms: _122  and  _125
REMARK   52  A    between atoms: _125  and  _126
REMARK   53  A    between atoms: _131  and  _132
REMARK   54  A    between atoms: _134  and  _136
REMARK   55  A    between atoms: _136  and  _137
REMARK   56  A    between atoms: _136  and  _139
REMARK   57  A    between atoms: _142  and  _144
REMARK   58  A    between atoms: _144  and  _145
REMARK   59  A    between atoms: _148  and  _150
REMARK   60  A    between atoms: _150  and  _151
REMARK   61  A    between atoms: _150  and  _153
REMARK   62  A    between atoms: _153  and  _154
REMARK   63  A    between atoms: _157  and  _159
REMARK   64  A    between atoms: _159  and  _160
REMARK   65  A    between atoms: _159  and  _162
REMARK   66  A    between atoms: _165  and  _167
REMARK   67  A    between atoms: _167  and  _168
REMARK   68  A    between atoms: _167  and  _170
REMARK   69  A    between atoms: _170  and  _171
REMARK   70  A    between atoms: _181  and  _183
REMARK   71  A    between atoms: _183  and  _184
REMARK   72  A    between atoms: _186  and  _188
REMARK   73  A    between atoms: _188  and  _189
REMARK   74  A    between atoms: _188  and  _191
REMARK   75  A    between atoms: _191  and  _192
REMARK   76  A    between atoms: _197  and  _198
REMARK   77  A    between atoms: _200  and  _202
REMARK   78  A    between atoms: _202  and  _203
REMARK   79  A    between atoms: _202  and  _205
REMARK   80  A    between atoms: _205  and  _206
REMARK   81  A    between atoms: _206  and  _207
REMARK   82  A    between atoms: _207  and  _208
REMARK   83  A    between atoms: _208  and  _209
REMARK   84  A    between atoms: _213  and  _215
REMARK   85  A    between atoms: _215  and  _216
REMARK   86  A    between atoms: _215  and  _218
REMARK   87  A    between atoms: _218  and  _219
REMARK   88  A    between atoms: _222  and  _224
REMARK   89  A    between atoms: _224  and  _225
REMARK   90  A    between atoms: _224  and  _227
REMARK   91  A    between atoms: _227  and  _228
REMARK   92  A    between atoms: _231  and  _233
REMARK   93  A    between atoms: _233  and  _234
REMARK   94  A    between atoms: _233  and  _236
REMARK   95  A    between atoms: _236  and  _237
REMARK   96  A    between atoms: _237  and  _238
REMARK   97  A    between atoms: _238  and  _239
REMARK   98  A    between atoms: _239  and  _240
REMARK   99  A    between atoms: _244  and  _246
REMARK  100  A    between atoms: _246  and  _247
REMARK  101  A    between atoms: _246  and  _249
REMARK  102  A    between atoms: _249  and  _250
REMARK  103  A    between atoms: _253  and  _255
REMARK  104  A    between atoms: _255  and  _256
REMARK  105  A    between atoms: _255  and  _258
REMARK  106  A    between atoms: _258  and  _259
REMARK  107  A    between atoms: _264  and  _265
REMARK  108  A    between atoms: _267  and  _269
REMARK  109  A    between atoms: _269  and  _270
REMARK  110  A    between atoms: _269  and  _272
REMARK  111  A    between atoms: _272  and  _273
REMARK  112  A    between atoms: _276  and  _278
REMARK  113  A    between atoms: _278  and  _279
REMARK  114  A    between atoms: _278  and  _281
REMARK  115  A    between atoms: _283  and  _285
REMARK  116  A    between atoms: _285  and  _286
REMARK  117  A    between atoms: _289  and  _291
REMARK  118  A    between atoms: _291  and  _292
REMARK  119  A    between atoms: _291  and  _294
REMARK  120  A    between atoms: _294  and  _295
REMARK  121  A    between atoms: _295  and  _296
REMARK  122  A    between atoms: _296  and  _297
REMARK  123  A    between atoms: _297  and  _298
REMARK  124  A    between atoms: _302  and  _304
REMARK  125  A    between atoms: _304  and  _305
REMARK  126  A    between atoms: _304  and  _307
REMARK  127  A    between atoms: _307  and  _308
REMARK  128  A    between atoms: _311  and  _313
REMARK  129  A    between atoms: _313  and  _314
REMARK  130  A    between atoms: _317  and  _319
REMARK  131  A    between atoms: _319  and  _320
REMARK  132  A    between atoms: _319  and  _322
REMARK  133  A    between atoms: _322  and  _323
REMARK  134  A    between atoms: _323  and  _437
REMARK  135  A    between atoms: _324  and  _326
REMARK  136  A    between atoms: _326  and  _327
REMARK  137  A    between atoms: _326  and  _329
REMARK  138  A    between atoms: _329  and  _330
REMARK  139  A    between atoms: _330  and  _331
REMARK  140  A    between atoms: _331  and  _332
REMARK  141  A    between atoms: _332  and  _333
REMARK  142  A    between atoms: _337  and  _339
REMARK  143  A    between atoms: _339  and  _340
REMARK  144  A    between atoms: _342  and  _344
REMARK  145  A    between atoms: _344  and  _345
REMARK  146  A    between atoms: _344  and  _347
REMARK  147  A    between atoms: _347  and  _348
REMARK  148  A    between atoms: _351  and  _353
REMARK  149  A    between atoms: _353  and  _354
REMARK  150  A    between atoms: _353  and  _356
REMARK  151  A    between atoms: _356  and  _357
REMARK  152  A    between atoms: _359  and  _361
REMARK  153  A    between atoms: _361  and  _362
REMARK  154  A    between atoms: _364  and  _366
REMARK  155  A    between atoms: _366  and  _367
REMARK  156  A    between atoms: _369  and  _371
REMARK  157  A    between atoms: _371  and  _372
REMARK  158  A    between atoms: _371  and  _374
REMARK  159  A    between atoms: _374  and  _375
REMARK  160  A    between atoms: _378  and  _380
REMARK  161  A    between atoms: _380  and  _381
REMARK  162  A    between atoms: _380  and  _383
REMARK  163  A    between atoms: _383  and  _384
REMARK  164  A    between atoms: _387  and  _389
REMARK  165  A    between atoms: _389  and  _390
REMARK  166  A    between atoms: _389  and  _392
REMARK  167  A    between atoms: _392  and  _393
REMARK  168  A    between atoms: _395  and  _397
REMARK  169  A    between atoms: _397  and  _398
REMARK  170  A    between atoms: _397  and  _400
REMARK  171  A    between atoms: _400  and  _401
REMARK  172  A    between atoms: _411  and  _413
REMARK  173  A    between atoms: _413  and  _414
REMARK  174  A    between atoms: _416  and  _418
REMARK  175  A    between atoms: _418  and  _419
REMARK  176  A    between atoms: _418  and  _421
REMARK  177  A    between atoms: _421  and  _422
REMARK  178  A    between atoms: _422  and  _423
REMARK  179  A    between atoms: _426  and  _428
REMARK  180  A    between atoms: _428  and  _429
REMARK  181  A    between atoms: _431  and  _433
REMARK  182  A    between atoms: _433  and  _434
REMARK  183  A    between atoms: _433  and  _436
REMARK  184  A    between atoms: _436  and  _437
REMARK  185  A    between atoms: _438  and  _440
REMARK  186  A    between atoms: _440  and  _441
REMARK  187  A    between atoms: _444  and  _446
REMARK  188  A    between atoms: _446  and  _447
REMARK  189  A    between atoms: _446  and  _449
REMARK  190  A    between atoms: _449  and  _450
REMARK  191  A    between atoms: _450  and  _451
REMARK  192  A    between atoms: _456  and  _458
REMARK  193  A    between atoms: _458  and  _459
REMARK  194  A    between atoms: _458  and  _461
REMARK  195  A    between atoms: _461  and  _462
REMARK  196  A    between atoms: _462  and  _463
REMARK  197  A    between atoms: _463  and  _464
REMARK  198  A    between atoms: _474  and  _475
REMARK  199  A    between atoms: _480  and  _482
REMARK  200  A    between atoms: _482  and  _483
REMARK  201  A    between atoms: _485  and  _487
REMARK  202  A    between atoms: _487  and  _488
REMARK  203  A    between atoms: _487  and  _490
REMARK  204  A    between atoms: _493  and  _495
REMARK  205  A    between atoms: _495  and  _496
REMARK  206  A    between atoms: _495  and  _498
REMARK  207  A    between atoms: _498  and  _499
REMARK  208  A    between atoms: _504  and  _505
REMARK  209  A    between atoms: _507  and  _509
REMARK  210  A    between atoms: _509  and  _510
REMARK  211  A    between atoms: _509  and  _512
REMARK  212  A    between atoms: _512  and  _513
REMARK                            x       y       z     vdW  Elec       q    Type
REMARK                         _______ _______ _______ _____ _____    ______ ____
ROOT
ATOM      1  O   HOH     1      41.081 -29.245  29.881  0.00  0.00    +0.000 OA
ENDROOT
TORSDOF 0
REMARK  Name = ../refined-set-2016/5e2o/5e2o_pocket.pdb
REMARK  212 active torsions:
REMARK  status: ('A' for Active; 'I' for Inactive)
REMARK    1  A    between atoms: _1  and  _5
REMARK    2  A    between atoms: _5  and  _6
REMARK    3  A    between atoms: _5  and  _8
REMARK    4  A    between atoms: _8  and  _9
REMARK    5  A    between atoms: _12  and  _14
REMARK    6  A    between atoms: _14  and  _15
REMARK    7  A    between atoms: _14  and  _17
REMARK    8  A    between atoms: _20  and  _22
REMARK    9  A    between atoms: _22  and  _23
REMARK   10  A    between atoms: _22  and  _25
REMARK   11  A    between atoms: _25  and  _26
REMARK   12  A    between atoms: _29  and  _31
REMARK   13  A    between atoms: _31  and  _32
REMARK   14  A    between atoms: _31  and  _34
REMARK   15  A    between atoms: _34  and  _35
REMARK   16  A    between atoms: _35  and  _36
REMARK   17  A    between atoms: _36  and  _37
REMARK   18  A    between atoms: _46  and  _48
REMARK   19  A    between atoms: _48  and  _49
REMARK   20  A    between atoms: _48  and  _51
REMARK   21  A    between atoms: _51  and  _52
REMARK   22  A    between atoms: _57  and  _59
REMARK   23  A    between atoms: _59  and  _60
REMARK   24  A    between atoms: _59  and  _62
REMARK   25  A    between atoms: _62  and  _63
REMARK   26  A    between atoms: _66  and  _68
REMARK   27  A    between atoms: _68  and  _69
REMARK   28  A    between atoms: _68  and  _71
REMARK   29  A    between atoms: _71  and  _72
REMARK   30  A    between atoms: _72  and  _107
REMARK   31  A    between atoms: _73  and  _75
REMARK   32  A    between atoms: _75  and  _76
REMARK   33  A    between atoms: _78  and  _80
REMARK   34  A    between atoms: _80  and  _81
REMARK   35  A    between atoms: _84  and  _86
REMARK   36  A    between atoms: _86  and  _87
REMARK   37  A    between atoms: _90  and  _92
REMARK   38  A    between atoms: _92  and  _93
REMARK   39  A    between atoms: _92  and  _95
REMARK   40  A    between atoms: _95  and  _96
REMARK   41  A    between atoms: _101  and  _103
REMARK   42  A    between atoms: _103  and  _104
REMARK   43  A    between atoms: _103  and  _106
REMARK   44  A    between atoms: _106  and  _107
REMARK   45  A    between atoms: _108  and  _110
REMARK   46  A    between atoms: _110  and  _111
REMARK   47  A    between atoms: _110  and  _113
REMARK   48  A    between atoms: _113  and  _114
REMARK   49  A    between atoms: _120  and  _122
REMARK   50  A    between atoms: _122  and  _123
REMARK   51  A    between atoms: _122  and  _125
REMARK   52  A    between atoms: _125  and  _126
REMARK   53  A    between atoms: _131  and  _132
REMARK   54  A    between atoms: _134  and  _136
REMARK   55  A    between atoms: _136  and  _137
REMARK   56  A    between atoms: _136  and  _139
REMARK   57  A    between atoms: _142  and  _144
REMARK   58  A    between atoms: _144  and  _145
REMARK   59  A    between atoms: _148  and  _150
REMARK   60  A    between atoms: _150  and  _151
REMARK   61  A    between atoms: _150  and  _153
REMARK   62  A    between atoms: _153  and  _154
REMARK   63  A    between atoms: _157  and  _159
REMARK   64  A    between atoms: _159  and  _160
REMARK   65  A    between atoms: _159  and  _162
REMARK   66  A    between atoms: _165  and  _167
REMARK   67  A    between atoms: _167  and  _168
REMARK   68  A    between atoms: _167  and  _170
REMARK   69  A    between atoms: _170  and  _171
REMARK   70  A    between atoms: _181  and  _183
REMARK   71  A    between atoms: _183  and  _184
REMARK   72  A    between atoms: _186  and  _188
REMARK   73  A    between atoms: _188  and  _189
REMARK   74  A    between atoms: _188  and  _191
REMARK   75  A    between atoms: _191  and  _192
REMARK   76  A    between atoms: _197  and  _198
REMARK   77  A    between atoms: _200  and  _202
REMARK   78  A    between atoms: _202  and  _203
REMARK   79  A    between atoms: _202  and  _205
REMARK   80  A    between atoms: _205  and  _206
REMARK   81  A    between atoms: _206  and  _207
REMARK   82  A    between atoms: _207  and  _208
REMARK   83  A    between atoms: _208  and  _209
REMARK   84  A    between atoms: _213  and  _215
REMARK   85  A    between atoms: _215  and  _216
REMARK   86  A    between atoms: _215  and  _218
REMARK   87  A    between atoms: _218  and  _219
REMARK   88  A    between atoms: _222  and  _224
REMARK   89  A    between atoms: _224  and  _225
REMARK   90  A    between atoms: _224  and  _227
REMARK   91  A    between atoms: _227  and  _228
REMARK   92  A    between atoms: _231  and  _233
REMARK   93  A    between atoms: _233  and  _234
REMARK   94  A    between atoms: _233  and  _236
REMARK   95  A    between atoms: _236  and  _237
REMARK   96  A    between atoms: _237  and  _238
REMARK   97  A    between atoms: _238  and  _239
REMARK   98  A    between atoms: _239  and  _240
REMARK   99  A    between atoms: _244  and  _246
REMARK  100  A    between atoms: _246  and  _247
REMARK  101  A    between atoms: _246  and  _249
REMARK  102  A    between atoms: _249  and  _250
REMARK  103  A    between atoms: _253  and  _255
REMARK  104  A    between atoms: _255  and  _256
REMARK  105  A    between atoms: _255  and  _258
REMARK  106  A    between atoms: _258  and  _259
REMARK  107  A    between atoms: _264  and  _265
REMARK  108  A    between atoms: _267  and  _269
REMARK  109  A    between atoms: _269  and  _270
REMARK  110  A    between atoms: _269  and  _272
REMARK  111  A    between atoms: _272  and  _273
REMARK  112  A    between atoms: _276  and  _278
REMARK  113  A    between atoms: _278  and  _279
REMARK  114  A    between atoms: _278  and  _281
REMARK  115  A    between atoms: _283  and  _285
REMARK  116  A    between atoms: _285  and  _286
REMARK  117  A    between atoms: _289  and  _291
REMARK  118  A    between atoms: _291  and  _292
REMARK  119  A    between atoms: _291  and  _294
REMARK  120  A    between atoms: _294  and  _295
REMARK  121  A    between atoms: _295  and  _296
REMARK  122  A    between atoms: _296  and  _297
REMARK  123  A    between atoms: _297  and  _298
REMARK  124  A    between atoms: _302  and  _304
REMARK  125  A    between atoms: _304  and  _305
REMARK  126  A    between atoms: _304  and  _307
REMARK  127  A    between atoms: _307  and  _308
REMARK  128  A    between atoms: _311  and  _313
REMARK  129  A    between atoms: _313  and  _314
REMARK  130  A    between atoms: _317  and  _319
REMARK  131  A    between atoms: _319  and  _320
REMARK  132  A    between atoms: _319  and  _322
REMARK  133  A    between atoms: _322  and  _323
REMARK  134  A    between atoms: _323  and  _437
REMARK  135  A    between atoms: _324  and  _326
REMARK  136  A    between atoms: _326  and  _327
REMARK  137  A    between atoms: _326  and  _329
REMARK  138  A    between atoms: _329  and  _330
REMARK  139  A    between atoms: _330  and  _331
REMARK  140  A    between atoms: _331  and  _332
REMARK  141  A    between atoms: _332  and  _333
REMARK  142  A    between atoms: _337  and  _339
REMARK  143  A    between atoms: _339  and  _340
REMARK  144  A    between atoms: _342  and  _344
REMARK  145  A    between atoms: _344  and  _345
REMARK  146  A    between atoms: _344  and  _347
REMARK  147  A    between atoms: _347  and  _348
REMARK  148  A    between atoms: _351  and  _353
REMARK  149  A    between atoms: _353  and  _354
REMARK  150  A    between atoms: _353  and  _356
REMARK  151  A    between atoms: _356  and  _357
REMARK  152  A    between atoms: _359  and  _361
REMARK  153  A    between atoms: _361  and  _362
REMARK  154  A    between atoms: _364  and  _366
REMARK  155  A    between atoms: _366  and  _367
REMARK  156  A    between atoms: _369  and  _371
REMARK  157  A    between atoms: _371  and  _372
REMARK  158  A    between atoms: _371  and  _374
REMARK  159  A    between atoms: _374  and  _375
REMARK  160  A    between atoms: _378  and  _380
REMARK  161  A    between atoms: _380  and  _381
REMARK  162  A    between atoms: _380  and  _383
REMARK  163  A    between atoms: _383  and  _384
REMARK  164  A    between atoms: _387  and  _389
REMARK  165  A    between atoms: _389  and  _390
REMARK  166  A    between atoms: _389  and  _392
REMARK  167  A    between atoms: _392  and  _393
REMARK  168  A    between atoms: _395  and  _397
REMARK  169  A    between atoms: _397  and  _398
REMARK  170  A    between atoms: _397  and  _400
REMARK  171  A    between atoms: _400  and  _401
REMARK  172  A    between atoms: _411  and  _413
REMARK  173  A    between atoms: _413  and  _414
REMARK  174  A    between atoms: _416  and  _418
REMARK  175  A    between atoms: _418  and  _419
REMARK  176  A    between atoms: _418  and  _421
REMARK  177  A    between atoms: _421  and  _422
REMARK  178  A    between atoms: _422  and  _423
REMARK  179  A    between atoms: _426  and  _428
REMARK  180  A    between atoms: _428  and  _429
REMARK  181  A    between atoms: _431  and  _433
REMARK  182  A    between atoms: _433  and  _434
REMARK  183  A    between atoms: _433  and  _436
REMARK  184  A    between atoms: _436  and  _437
REMARK  185  A    between atoms: _438  and  _440
REMARK  186  A    between atoms: _440  and  _441
REMARK  187  A    between atoms: _444  and  _446
REMARK  188  A    between atoms: _446  and  _447
REMARK  189  A    between atoms: _446  and  _449
REMARK  190  A    between atoms: _449  and  _450
REMARK  191  A    between atoms: _450  and  _451
REMARK  192  A    between atoms: _456  and  _458
REMARK  193  A    between atoms: _458  and  _459
REMARK  194  A    between atoms: _458  and  _461
REMARK  195  A    between atoms: _461  and  _462
REMARK  196  A    between atoms: _462  and  _463
REMARK  197  A    between atoms: _463  and  _464
REMARK  198  A    between atoms: _474  and  _475
REMARK  199  A    between atoms: _480  and  _482
REMARK  200  A    between atoms: _482  and  _483
REMARK  201  A    between atoms: _485  and  _487
REMARK  202  A    between atoms: _487  and  _488
REMARK  203  A    between atoms: _487  and  _490
REMARK  204  A    between atoms: _493  and  _495
REMARK  205  A    between atoms: _495  and  _496
REMARK  206  A    between atoms: _495  and  _498
REMARK  207  A    between atoms: _498  and  _499
REMARK  208  A    between atoms: _504  and  _505
REMARK  209  A    between atoms: _507  and  _509
REMARK  210  A    between atoms: _509  and  _510
REMARK  211  A    between atoms: _509  and  _512
REMARK  212  A    between atoms: _512  and  _513
REMARK                            x       y       z     vdW  Elec       q    Type
REMARK                         _______ _______ _______ _____ _____    ______ ____
ROOT
ATOM      1  O   HOH     1      43.610 -17.288  21.304  0.00  0.00    +0.000 OA
ENDROOT
TORSDOF 0
REMARK  Name = ../refined-set-2016/5e2o/5e2o_pocket.pdb
REMARK  212 active torsions:
REMARK  status: ('A' for Active; 'I' for Inactive)
REMARK    1  A    between atoms: _1  and  _5
REMARK    2  A    between atoms: _5  and  _6
REMARK    3  A    between atoms: _5  and  _8
REMARK    4  A    between atoms: _8  and  _9
REMARK    5  A    between atoms: _12  and  _14
REMARK    6  A    between atoms: _14  and  _15
REMARK    7  A    between atoms: _14  and  _17
REMARK    8  A    between atoms: _20  and  _22
REMARK    9  A    between atoms: _22  and  _23
REMARK   10  A    between atoms: _22  and  _25
REMARK   11  A    between atoms: _25  and  _26
REMARK   12  A    between atoms: _29  and  _31
REMARK   13  A    between atoms: _31  and  _32
REMARK   14  A    between atoms: _31  and  _34
REMARK   15  A    between atoms: _34  and  _35
REMARK   16  A    between atoms: _35  and  _36
REMARK   17  A    between atoms: _36  and  _37
REMARK   18  A    between atoms: _46  and  _48
REMARK   19  A    between atoms: _48  and  _49
REMARK   20  A    between atoms: _48  and  _51
REMARK   21  A    between atoms: _51  and  _52
REMARK   22  A    between atoms: _57  and  _59
REMARK   23  A    between atoms: _59  and  _60
REMARK   24  A    between atoms: _59  and  _62
REMARK   25  A    between atoms: _62  and  _63
REMARK   26  A    between atoms: _66  and  _68
REMARK   27  A    between atoms: _68  and  _69
REMARK   28  A    between atoms: _68  and  _71
REMARK   29  A    between atoms: _71  and  _72
REMARK   30  A    between atoms: _72  and  _107
REMARK   31  A    between atoms: _73  and  _75
REMARK   32  A    between atoms: _75  and  _76
REMARK   33  A    between atoms: _78  and  _80
REMARK   34  A    between atoms: _80  and  _81
REMARK   35  A    between atoms: _84  and  _86
REMARK   36  A    between atoms: _86  and  _87
REMARK   37  A    between atoms: _90  and  _92
REMARK   38  A    between atoms: _92  and  _93
REMARK   39  A    between atoms: _92  and  _95
REMARK   40  A    between atoms: _95  and  _96
REMARK   41  A    between atoms: _101  and  _103
REMARK   42  A    between atoms: _103  and  _104
REMARK   43  A    between atoms: _103  and  _106
REMARK   44  A    between atoms: _106  and  _107
REMARK   45  A    between atoms: _108  and  _110
REMARK   46  A    between atoms: _110  and  _111
REMARK   47  A    between atoms: _110  and  _113
REMARK   48  A    between atoms: _113  and  _114
REMARK   49  A    between atoms: _120  and  _122
REMARK   50  A    between atoms: _122  and  _123
REMARK   51  A    between atoms: _122  and  _125
REMARK   52  A    between atoms: _125  and  _126
REMARK   53  A    between atoms: _131  and  _132
REMARK   54  A    between atoms: _134  and  _136
REMARK   55  A    between atoms: _136  and  _137
REMARK   56  A    between atoms: _136  and  _139
REMARK   57  A    between atoms: _142  and  _144
REMARK   58  A    between atoms: _144  and  _145
REMARK   59  A    between atoms: _148  and  _150
REMARK   60  A    between atoms: _150  and  _151
REMARK   61  A    between atoms: _150  and  _153
REMARK   62  A    between atoms: _153  and  _154
REMARK   63  A    between atoms: _157  and  _159
REMARK   64  A    between atoms: _159  and  _160
REMARK   65  A    between atoms: _159  and  _162
REMARK   66  A    between atoms: _165  and  _167
REMARK   67  A    between atoms: _167  and  _168
REMARK   68  A    between atoms: _167  and  _170
REMARK   69  A    between atoms: _170  and  _171
REMARK   70  A    between atoms: _181  and  _183
REMARK   71  A    between atoms: _183  and  _184
REMARK   72  A    between atoms: _186  and  _188
REMARK   73  A    between atoms: _188  and  _189
REMARK   74  A    between atoms: _188  and  _191
REMARK   75  A    between atoms: _191  and  _192
REMARK   76  A    between atoms: _197  and  _198
REMARK   77  A    between atoms: _200  and  _202
REMARK   78  A    between atoms: _202  and  _203
REMARK   79  A    between atoms: _202  and  _205
REMARK   80  A    between atoms: _205  and  _206
REMARK   81  A    between atoms: _206  and  _207
REMARK   82  A    between atoms: _207  and  _208
REMARK   83  A    between atoms: _208  and  _209
REMARK   84  A    between atoms: _213  and  _215
REMARK   85  A    between atoms: _215  and  _216
REMARK   86  A    between atoms: _215  and  _218
REMARK   87  A    between atoms: _218  and  _219
REMARK   88  A    between atoms: _222  and  _224
REMARK   89  A    between atoms: _224  and  _225
REMARK   90  A    between atoms: _224  and  _227
REMARK   91  A    between atoms: _227  and  _228
REMARK   92  A    between atoms: _231  and  _233
REMARK   93  A    between atoms: _233  and  _234
REMARK   94  A    between atoms: _233  and  _236
REMARK   95  A    between atoms: _236  and  _237
REMARK   96  A    between atoms: _237  and  _238
REMARK   97  A    between atoms: _238  and  _239
REMARK   98  A    between atoms: _239  and  _240
REMARK   99  A    between atoms: _244  and  _246
REMARK  100  A    between atoms: _246  and  _247
REMARK  101  A    between atoms: _246  and  _249
REMARK  102  A    between atoms: _249  and  _250
REMARK  103  A    between atoms: _253  and  _255
REMARK  104  A    between atoms: _255  and  _256
REMARK  105  A    between atoms: _255  and  _258
REMARK  106  A    between atoms: _258  and  _259
REMARK  107  A    between atoms: _264  and  _265
REMARK  108  A    between atoms: _267  and  _269
REMARK  109  A    between atoms: _269  and  _270
REMARK  110  A    between atoms: _269  and  _272
REMARK  111  A    between atoms: _272  and  _273
REMARK  112  A    between atoms: _276  and  _278
REMARK  113  A    between atoms: _278  and  _279
REMARK  114  A    between atoms: _278  and  _281
REMARK  115  A    between atoms: _283  and  _285
REMARK  116  A    between atoms: _285  and  _286
REMARK  117  A    between atoms: _289  and  _291
REMARK  118  A    between atoms: _291  and  _292
REMARK  119  A    between atoms: _291  and  _294
REMARK  120  A    between atoms: _294  and  _295
REMARK  121  A    between atoms: _295  and  _296
REMARK  122  A    between atoms: _296  and  _297
REMARK  123  A    between atoms: _297  and  _298
REMARK  124  A    between atoms: _302  and  _304
REMARK  125  A    between atoms: _304  and  _305
REMARK  126  A    between atoms: _304  and  _307
REMARK  127  A    between atoms: _307  and  _308
REMARK  128  A    between atoms: _311  and  _313
REMARK  129  A    between atoms: _313  and  _314
REMARK  130  A    between atoms: _317  and  _319
REMARK  131  A    between atoms: _319  and  _320
REMARK  132  A    between atoms: _319  and  _322
REMARK  133  A    between atoms: _322  and  _323
REMARK  134  A    between atoms: _323  and  _437
REMARK  135  A    between atoms: _324  and  _326
REMARK  136  A    between atoms: _326  and  _327
REMARK  137  A    between atoms: _326  and  _329
REMARK  138  A    between atoms: _329  and  _330
REMARK  139  A    between atoms: _330  and  _331
REMARK  140  A    between atoms: _331  and  _332
REMARK  141  A    between atoms: _332  and  _333
REMARK  142  A    between atoms: _337  and  _339
REMARK  143  A    between atoms: _339  and  _340
REMARK  144  A    between atoms: _342  and  _344
REMARK  145  A    between atoms: _344  and  _345
REMARK  146  A    between atoms: _344  and  _347
REMARK  147  A    between atoms: _347  and  _348
REMARK  148  A    between atoms: _351  and  _353
REMARK  149  A    between atoms: _353  and  _354
REMARK  150  A    between atoms: _353  and  _356
REMARK  151  A    between atoms: _356  and  _357
REMARK  152  A    between atoms: _359  and  _361
REMARK  153  A    between atoms: _361  and  _362
REMARK  154  A    between atoms: _364  and  _366
REMARK  155  A    between atoms: _366  and  _367
REMARK  156  A    between atoms: _369  and  _371
REMARK  157  A    between atoms: _371  and  _372
REMARK  158  A    between atoms: _371  and  _374
REMARK  159  A    between atoms: _374  and  _375
REMARK  160  A    between atoms: _378  and  _380
REMARK  161  A    between atoms: _380  and  _381
REMARK  162  A    between atoms: _380  and  _383
REMARK  163  A    between atoms: _383  and  _384
REMARK  164  A    between atoms: _387  and  _389
REMARK  165  A    between atoms: _389  and  _390
REMARK  166  A    between atoms: _389  and  _392
REMARK  167  A    between atoms: _392  and  _393
REMARK  168  A    between atoms: _395  and  _397
REMARK  169  A    between atoms: _397  and  _398
REMARK  170  A    between atoms: _397  and  _400
REMARK  171  A    between atoms: _400  and  _401
REMARK  172  A    between atoms: _411  and  _413
REMARK  173  A    between atoms: _413  and  _414
REMARK  174  A    between atoms: _416  and  _418
REMARK  175  A    between atoms: _418  and  _419
REMARK  176  A    between atoms: _418  and  _421
REMARK  177  A    between atoms: _421  and  _422
REMARK  178  A    between atoms: _422  and  _423
REMARK  179  A    between atoms: _426  and  _428
REMARK  180  A    between atoms: _428  and  _429
REMARK  181  A    between atoms: _431  and  _433
REMARK  182  A    between atoms: _433  and  _434
REMARK  183  A    between atoms: _433  and  _436
REMARK  184  A    between atoms: _436  and  _437
REMARK  185  A    between atoms: _438  and  _440
REMARK  186  A    between atoms: _440  and  _441
REMARK  187  A    between atoms: _444  and  _446
REMARK  188  A    between atoms: _446  and  _447
REMARK  189  A    between atoms: _446  and  _449
REMARK  190  A    between atoms: _449  and  _450
REMARK  191  A    between atoms: _450  and  _451
REMARK  192  A    between atoms: _456  and  _458
REMARK  193  A    between atoms: _458  and  _459
REMARK  194  A    between atoms: _458  and  _461
REMARK  195  A    between atoms: _461  and  _462
REMARK  196  A    between atoms: _462  and  _463
REMARK  197  A    between atoms: _463  and  _464
REMARK  198  A    between atoms: _474  and  _475
REMARK  199  A    between atoms: _480  and  _482
REMARK  200  A    between atoms: _482  and  _483
REMARK  201  A    between atoms: _485  and  _487
REMARK  202  A    between atoms: _487  and  _488
REMARK  203  A    between atoms: _487  and  _490
REMARK  204  A    between atoms: _493  and  _495
REMARK  205  A    between atoms: _495  and  _496
REMARK  206  A    between atoms: _495  and  _498
REMARK  207  A    between atoms: _498  and  _499
REMARK  208  A    between atoms: _504  and  _505
REMARK  209  A    between atoms: _507  and  _509
REMARK  210  A    between atoms: _509  and  _510
REMARK  211  A    between atoms: _509  and  _512
REMARK  212  A    between atoms: _512  and  _513
REMARK                            x       y       z     vdW  Elec       q    Type
REMARK                         _______ _______ _______ _____ _____    ______ ____
ROOT
ATOM      1  O   HOH     1      37.748 -16.512  17.026  0.00  0.00    +0.000 OA
ENDROOT
TORSDOF 0
REMARK  Name = ../refined-set-2016/5e2o/5e2o_pocket.pdb
REMARK  212 active torsions:
REMARK  status: ('A' for Active; 'I' for Inactive)
REMARK    1  A    between atoms: _1  and  _5
REMARK    2  A    between atoms: _5  and  _6
REMARK    3  A    between atoms: _5  and  _8
REMARK    4  A    between atoms: _8  and  _9
REMARK    5  A    between atoms: _12  and  _14
REMARK    6  A    between atoms: _14  and  _15
REMARK    7  A    between atoms: _14  and  _17
REMARK    8  A    between atoms: _20  and  _22
REMARK    9  A    between atoms: _22  and  _23
REMARK   10  A    between atoms: _22  and  _25
REMARK   11  A    between atoms: _25  and  _26
REMARK   12  A    between atoms: _29  and  _31
REMARK   13  A    between atoms: _31  and  _32
REMARK   14  A    between atoms: _31  and  _34
REMARK   15  A    between atoms: _34  and  _35
REMARK   16  A    between atoms: _35  and  _36
REMARK   17  A    between atoms: _36  and  _37
REMARK   18  A    between atoms: _46  and  _48
REMARK   19  A    between atoms: _48  and  _49
REMARK   20  A    between atoms: _48  and  _51
REMARK   21  A    between atoms: _51  and  _52
REMARK   22  A    between atoms: _57  and  _59
REMARK   23  A    between atoms: _59  and  _60
REMARK   24  A    between atoms: _59  and  _62
REMARK   25  A    between atoms: _62  and  _63
REMARK   26  A    between atoms: _66  and  _68
REMARK   27  A    between atoms: _68  and  _69
REMARK   28  A    between atoms: _68  and  _71
REMARK   29  A    between atoms: _71  and  _72
REMARK   30  A    between atoms: _72  and  _107
REMARK   31  A    between atoms: _73  and  _75
REMARK   32  A    between atoms: _75  and  _76
REMARK   33  A    between atoms: _78  and  _80
REMARK   34  A    between atoms: _80  and  _81
REMARK   35  A    between atoms: _84  and  _86
REMARK   36  A    between atoms: _86  and  _87
REMARK   37  A    between atoms: _90  and  _92
REMARK   38  A    between atoms: _92  and  _93
REMARK   39  A    between atoms: _92  and  _95
REMARK   40  A    between atoms: _95  and  _96
REMARK   41  A    between atoms: _101  and  _103
REMARK   42  A    between atoms: _103  and  _104
REMARK   43  A    between atoms: _103  and  _106
REMARK   44  A    between atoms: _106  and  _107
REMARK   45  A    between atoms: _108  and  _110
REMARK   46  A    between atoms: _110  and  _111
REMARK   47  A    between atoms: _110  and  _113
REMARK   48  A    between atoms: _113  and  _114
REMARK   49  A    between atoms: _120  and  _122
REMARK   50  A    between atoms: _122  and  _123
REMARK   51  A    between atoms: _122  and  _125
REMARK   52  A    between atoms: _125  and  _126
REMARK   53  A    between atoms: _131  and  _132
REMARK   54  A    between atoms: _134  and  _136
REMARK   55  A    between atoms: _136  and  _137
REMARK   56  A    between atoms: _136  and  _139
REMARK   57  A    between atoms: _142  and  _144
REMARK   58  A    between atoms: _144  and  _145
REMARK   59  A    between atoms: _148  and  _150
REMARK   60  A    between atoms: _150  and  _151
REMARK   61  A    between atoms: _150  and  _153
REMARK   62  A    between atoms: _153  and  _154
REMARK   63  A    between atoms: _157  and  _159
REMARK   64  A    between atoms: _159  and  _160
REMARK   65  A    between atoms: _159  and  _162
REMARK   66  A    between atoms: _165  and  _167
REMARK   67  A    between atoms: _167  and  _168
REMARK   68  A    between atoms: _167  and  _170
REMARK   69  A    between atoms: _170  and  _171
REMARK   70  A    between atoms: _181  and  _183
REMARK   71  A    between atoms: _183  and  _184
REMARK   72  A    between atoms: _186  and  _188
REMARK   73  A    between atoms: _188  and  _189
REMARK   74  A    between atoms: _188  and  _191
REMARK   75  A    between atoms: _191  and  _192
REMARK   76  A    between atoms: _197  and  _198
REMARK   77  A    between atoms: _200  and  _202
REMARK   78  A    between atoms: _202  and  _203
REMARK   79  A    between atoms: _202  and  _205
REMARK   80  A    between atoms: _205  and  _206
REMARK   81  A    between atoms: _206  and  _207
REMARK   82  A    between atoms: _207  and  _208
REMARK   83  A    between atoms: _208  and  _209
REMARK   84  A    between atoms: _213  and  _215
REMARK   85  A    between atoms: _215  and  _216
REMARK   86  A    between atoms: _215  and  _218
REMARK   87  A    between atoms: _218  and  _219
REMARK   88  A    between atoms: _222  and  _224
REMARK   89  A    between atoms: _224  and  _225
REMARK   90  A    between atoms: _224  and  _227
REMARK   91  A    between atoms: _227  and  _228
REMARK   92  A    between atoms: _231  and  _233
REMARK   93  A    between atoms: _233  and  _234
REMARK   94  A    between atoms: _233  and  _236
REMARK   95  A    between atoms: _236  and  _237
REMARK   96  A    between atoms: _237  and  _238
REMARK   97  A    between atoms: _238  and  _239
REMARK   98  A    between atoms: _239  and  _240
REMARK   99  A    between atoms: _244  and  _246
REMARK  100  A    between atoms: _246  and  _247
REMARK  101  A    between atoms: _246  and  _249
REMARK  102  A    between atoms: _249  and  _250
REMARK  103  A    between atoms: _253  and  _255
REMARK  104  A    between atoms: _255  and  _256
REMARK  105  A    between atoms: _255  and  _258
REMARK  106  A    between atoms: _258  and  _259
REMARK  107  A    between atoms: _264  and  _265
REMARK  108  A    between atoms: _267  and  _269
REMARK  109  A    between atoms: _269  and  _270
REMARK  110  A    between atoms: _269  and  _272
REMARK  111  A    between atoms: _272  and  _273
REMARK  112  A    between atoms: _276  and  _278
REMARK  113  A    between atoms: _278  and  _279
REMARK  114  A    between atoms: _278  and  _281
REMARK  115  A    between atoms: _283  and  _285
REMARK  116  A    between atoms: _285  and  _286
REMARK  117  A    between atoms: _289  and  _291
REMARK  118  A    between atoms: _291  and  _292
REMARK  119  A    between atoms: _291  and  _294
REMARK  120  A    between atoms: _294  and  _295
REMARK  121  A    between atoms: _295  and  _296
REMARK  122  A    between atoms: _296  and  _297
REMARK  123  A    between atoms: _297  and  _298
REMARK  124  A    between atoms: _302  and  _304
REMARK  125  A    between atoms: _304  and  _305
REMARK  126  A    between atoms: _304  and  _307
REMARK  127  A    between atoms: _307  and  _308
REMARK  128  A    between atoms: _311  and  _313
REMARK  129  A    between atoms: _313  and  _314
REMARK  130  A    between atoms: _317  and  _319
REMARK  131  A    between atoms: _319  and  _320
REMARK  132  A    between atoms: _319  and  _322
REMARK  133  A    between atoms: _322  and  _323
REMARK  134  A    between atoms: _323  and  _437
REMARK  135  A    between atoms: _324  and  _326
REMARK  136  A    between atoms: _326  and  _327
REMARK  137  A    between atoms: _326  and  _329
REMARK  138  A    between atoms: _329  and  _330
REMARK  139  A    between atoms: _330  and  _331
REMARK  140  A    between atoms: _331  and  _332
REMARK  141  A    between atoms: _332  and  _333
REMARK  142  A    between atoms: _337  and  _339
REMARK  143  A    between atoms: _339  and  _340
REMARK  144  A    between atoms: _342  and  _344
REMARK  145  A    between atoms: _344  and  _345
REMARK  146  A    between atoms: _344  and  _347
REMARK  147  A    between atoms: _347  and  _348
REMARK  148  A    between atoms: _351  and  _353
REMARK  149  A    between atoms: _353  and  _354
REMARK  150  A    between atoms: _353  and  _356
REMARK  151  A    between atoms: _356  and  _357
REMARK  152  A    between atoms: _359  and  _361
REMARK  153  A    between atoms: _361  and  _362
REMARK  154  A    between atoms: _364  and  _366
REMARK  155  A    between atoms: _366  and  _367
REMARK  156  A    between atoms: _369  and  _371
REMARK  157  A    between atoms: _371  and  _372
REMARK  158  A    between atoms: _371  and  _374
REMARK  159  A    between atoms: _374  and  _375
REMARK  160  A    between atoms: _378  and  _380
REMARK  161  A    between atoms: _380  and  _381
REMARK  162  A    between atoms: _380  and  _383
REMARK  163  A    between atoms: _383  and  _384
REMARK  164  A    between atoms: _387  and  _389
REMARK  165  A    between atoms: _389  and  _390
REMARK  166  A    between atoms: _389  and  _392
REMARK  167  A    between atoms: _392  and  _393
REMARK  168  A    between atoms: _395  and  _397
REMARK  169  A    between atoms: _397  and  _398
REMARK  170  A    between atoms: _397  and  _400
REMARK  171  A    between atoms: _400  and  _401
REMARK  172  A    between atoms: _411  and  _413
REMARK  173  A    between atoms: _413  and  _414
REMARK  174  A    between atoms: _416  and  _418
REMARK  175  A    between atoms: _418  and  _419
REMARK  176  A    between atoms: _418  and  _421
REMARK  177  A    between atoms: _421  and  _422
REMARK  178  A    between atoms: _422  and  _423
REMARK  179  A    between atoms: _426  and  _428
REMARK  180  A    between atoms: _428  and  _429
REMARK  181  A    between atoms: _431  and  _433
REMARK  182  A    between atoms: _433  and  _434
REMARK  183  A    between atoms: _433  and  _436
REMARK  184  A    between atoms: _436  and  _437
REMARK  185  A    between atoms: _438  and  _440
REMARK  186  A    between atoms: _440  and  _441
REMARK  187  A    between atoms: _444  and  _446
REMARK  188  A    between atoms: _446  and  _447
REMARK  189  A    between atoms: _446  and  _449
REMARK  190  A    between atoms: _449  and  _450
REMARK  191  A    between atoms: _450  and  _451
REMARK  192  A    between atoms: _456  and  _458
REMARK  193  A    between atoms: _458  and  _459
REMARK  194  A    between atoms: _458  and  _461
REMARK  195  A    between atoms: _461  and  _462
REMARK  196  A    between atoms: _462  and  _463
REMARK  197  A    between atoms: _463  and  _464
REMARK  198  A    between atoms: _474  and  _475
REMARK  199  A    between atoms: _480  and  _482
REMARK  200  A    between atoms: _482  and  _483
REMARK  201  A    between atoms: _485  and  _487
REMARK  202  A    between atoms: _487  and  _488
REMARK  203  A    between atoms: _487  and  _490
REMARK  204  A    between atoms: _493  and  _495
REMARK  205  A    between atoms: _495  and  _496
REMARK  206  A    between atoms: _495  and  _498
REMARK  207  A    between atoms: _498  and  _499
REMARK  208  A    between atoms: _504  and  _505
REMARK  209  A    between atoms: _507  and  _509
REMARK  210  A    between atoms: _509  and  _510
REMARK  211  A    between atoms: _509  and  _512
REMARK  212  A    between atoms: _512  and  _513
REMARK                            x       y       z     vdW  Elec       q    Type
REMARK                         _______ _______ _______ _____ _____    ______ ____
ROOT
ATOM      1  O   HOH     1      36.486  -9.273  23.920  0.00  0.00    +0.000 OA
ENDROOT
TORSDOF 0
REMARK  Name = ../refined-set-2016/5e2o/5e2o_pocket.pdb
REMARK  212 active torsions:
REMARK  status: ('A' for Active; 'I' for Inactive)
REMARK    1  A    between atoms: _1  and  _5
REMARK    2  A    between atoms: _5  and  _6
REMARK    3  A    between atoms: _5  and  _8
REMARK    4  A    between atoms: _8  and  _9
REMARK    5  A    between atoms: _12  and  _14
REMARK    6  A    between atoms: _14  and  _15
REMARK    7  A    between atoms: _14  and  _17
REMARK    8  A    between atoms: _20  and  _22
REMARK    9  A    between atoms: _22  and  _23
REMARK   10  A    between atoms: _22  and  _25
REMARK   11  A    between atoms: _25  and  _26
REMARK   12  A    between atoms: _29  and  _31
REMARK   13  A    between atoms: _31  and  _32
REMARK   14  A    between atoms: _31  and  _34
REMARK   15  A    between atoms: _34  and  _35
REMARK   16  A    between atoms: _35  and  _36
REMARK   17  A    between atoms: _36  and  _37
REMARK   18  A    between atoms: _46  and  _48
REMARK   19  A    between atoms: _48  and  _49
REMARK   20  A    between atoms: _48  and  _51
REMARK   21  A    between atoms: _51  and  _52
REMARK   22  A    between atoms: _57  and  _59
REMARK   23  A    between atoms: _59  and  _60
REMARK   24  A    between atoms: _59  and  _62
REMARK   25  A    between atoms: _62  and  _63
REMARK   26  A    between atoms: _66  and  _68
REMARK   27  A    between atoms: _68  and  _69
REMARK   28  A    between atoms: _68  and  _71
REMARK   29  A    between atoms: _71  and  _72
REMARK   30  A    between atoms: _72  and  _107
REMARK   31  A    between atoms: _73  and  _75
REMARK   32  A    between atoms: _75  and  _76
REMARK   33  A    between atoms: _78  and  _80
REMARK   34  A    between atoms: _80  and  _81
REMARK   35  A    between atoms: _84  and  _86
REMARK   36  A    between atoms: _86  and  _87
REMARK   37  A    between atoms: _90  and  _92
REMARK   38  A    between atoms: _92  and  _93
REMARK   39  A    between atoms: _92  and  _95
REMARK   40  A    between atoms: _95  and  _96
REMARK   41  A    between atoms: _101  and  _103
REMARK   42  A    between atoms: _103  and  _104
REMARK   43  A    between atoms: _103  and  _106
REMARK   44  A    between atoms: _106  and  _107
REMARK   45  A    between atoms: _108  and  _110
REMARK   46  A    between atoms: _110  and  _111
REMARK   47  A    between atoms: _110  and  _113
REMARK   48  A    between atoms: _113  and  _114
REMARK   49  A    between atoms: _120  and  _122
REMARK   50  A    between atoms: _122  and  _123
REMARK   51  A    between atoms: _122  and  _125
REMARK   52  A    between atoms: _125  and  _126
REMARK   53  A    between atoms: _131  and  _132
REMARK   54  A    between atoms: _134  and  _136
REMARK   55  A    between atoms: _136  and  _137
REMARK   56  A    between atoms: _136  and  _139
REMARK   57  A    between atoms: _142  and  _144
REMARK   58  A    between atoms: _144  and  _145
REMARK   59  A    between atoms: _148  and  _150
REMARK   60  A    between atoms: _150  and  _151
REMARK   61  A    between atoms: _150  and  _153
REMARK   62  A    between atoms: _153  and  _154
REMARK   63  A    between atoms: _157  and  _159
REMARK   64  A    between atoms: _159  and  _160
REMARK   65  A    between atoms: _159  and  _162
REMARK   66  A    between atoms: _165  and  _167
REMARK   67  A    between atoms: _167  and  _168
REMARK   68  A    between atoms: _167  and  _170
REMARK   69  A    between atoms: _170  and  _171
REMARK   70  A    between atoms: _181  and  _183
REMARK   71  A    between atoms: _183  and  _184
REMARK   72  A    between atoms: _186  and  _188
REMARK   73  A    between atoms: _188  and  _189
REMARK   74  A    between atoms: _188  and  _191
REMARK   75  A    between atoms: _191  and  _192
REMARK   76  A    between atoms: _197  and  _198
REMARK   77  A    between atoms: _200  and  _202
REMARK   78  A    between atoms: _202  and  _203
REMARK   79  A    between atoms: _202  and  _205
REMARK   80  A    between atoms: _205  and  _206
REMARK   81  A    between atoms: _206  and  _207
REMARK   82  A    between atoms: _207  and  _208
REMARK   83  A    between atoms: _208  and  _209
REMARK   84  A    between atoms: _213  and  _215
REMARK   85  A    between atoms: _215  and  _216
REMARK   86  A    between atoms: _215  and  _218
REMARK   87  A    between atoms: _218  and  _219
REMARK   88  A    between atoms: _222  and  _224
REMARK   89  A    between atoms: _224  and  _225
REMARK   90  A    between atoms: _224  and  _227
REMARK   91  A    between atoms: _227  and  _228
REMARK   92  A    between atoms: _231  and  _233
REMARK   93  A    between atoms: _233  and  _234
REMARK   94  A    between atoms: _233  and  _236
REMARK   95  A    between atoms: _236  and  _237
REMARK   96  A    between atoms: _237  and  _238
REMARK   97  A    between atoms: _238  and  _239
REMARK   98  A    between atoms: _239  and  _240
REMARK   99  A    between atoms: _244  and  _246
REMARK  100  A    between atoms: _246  and  _247
REMARK  101  A    between atoms: _246  and  _249
REMARK  102  A    between atoms: _249  and  _250
REMARK  103  A    between atoms: _253  and  _255
REMARK  104  A    between atoms: _255  and  _256
REMARK  105  A    between atoms: _255  and  _258
REMARK  106  A    between atoms: _258  and  _259
REMARK  107  A    between atoms: _264  and  _265
REMARK  108  A    between atoms: _267  and  _269
REMARK  109  A    between atoms: _269  and  _270
REMARK  110  A    between atoms: _269  and  _272
REMARK  111  A    between atoms: _272  and  _273
REMARK  112  A    between atoms: _276  and  _278
REMARK  113  A    between atoms: _278  and  _279
REMARK  114  A    between atoms: _278  and  _281
REMARK  115  A    between atoms: _283  and  _285
REMARK  116  A    between atoms: _285  and  _286
REMARK  117  A    between atoms: _289  and  _291
REMARK  118  A    between atoms: _291  and  _292
REMARK  119  A    between atoms: _291  and  _294
REMARK  120  A    between atoms: _294  and  _295
REMARK  121  A    between atoms: _295  and  _296
REMARK  122  A    between atoms: _296  and  _297
REMARK  123  A    between atoms: _297  and  _298
REMARK  124  A    between atoms: _302  and  _304
REMARK  125  A    between atoms: _304  and  _305
REMARK  126  A    between atoms: _304  and  _307
REMARK  127  A    between atoms: _307  and  _308
REMARK  128  A    between atoms: _311  and  _313
REMARK  129  A    between atoms: _313  and  _314
REMARK  130  A    between atoms: _317  and  _319
REMARK  131  A    between atoms: _319  and  _320
REMARK  132  A    between atoms: _319  and  _322
REMARK  133  A    between atoms: _322  and  _323
REMARK  134  A    between atoms: _323  and  _437
REMARK  135  A    between atoms: _324  and  _326
REMARK  136  A    between atoms: _326  and  _327
REMARK  137  A    between atoms: _326  and  _329
REMARK  138  A    between atoms: _329  and  _330
REMARK  139  A    between atoms: _330  and  _331
REMARK  140  A    between atoms: _331  and  _332
REMARK  141  A    between atoms: _332  and  _333
REMARK  142  A    between atoms: _337  and  _339
REMARK  143  A    between atoms: _339  and  _340
REMARK  144  A    between atoms: _342  and  _344
REMARK  145  A    between atoms: _344  and  _345
REMARK  146  A    between atoms: _344  and  _347
REMARK  147  A    between atoms: _347  and  _348
REMARK  148  A    between atoms: _351  and  _353
REMARK  149  A    between atoms: _353  and  _354
REMARK  150  A    between atoms: _353  and  _356
REMARK  151  A    between atoms: _356  and  _357
REMARK  152  A    between atoms: _359  and  _361
REMARK  153  A    between atoms: _361  and  _362
REMARK  154  A    between atoms: _364  and  _366
REMARK  155  A    between atoms: _366  and  _367
REMARK  156  A    between atoms: _369  and  _371
REMARK  157  A    between atoms: _371  and  _372
REMARK  158  A    between atoms: _371  and  _374
REMARK  159  A    between atoms: _374  and  _375
REMARK  160  A    between atoms: _378  and  _380
REMARK  161  A    between atoms: _380  and  _381
REMARK  162  A    between atoms: _380  and  _383
REMARK  163  A    between atoms: _383  and  _384
REMARK  164  A    between atoms: _387  and  _389
REMARK  165  A    between atoms: _389  and  _390
REMARK  166  A    between atoms: _389  and  _392
REMARK  167  A    between atoms: _392  and  _393
REMARK  168  A    between atoms: _395  and  _397
REMARK  169  A    between atoms: _397  and  _398
REMARK  170  A    between atoms: _397  and  _400
REMARK  171  A    between atoms: _400  and  _401
REMARK  172  A    between atoms: _411  and  _413
REMARK  173  A    between atoms: _413  and  _414
REMARK  174  A    between atoms: _416  and  _418
REMARK  175  A    between atoms: _418  and  _419
REMARK  176  A    between atoms: _418  and  _421
REMARK  177  A    between atoms: _421  and  _422
REMARK  178  A    between atoms: _422  and  _423
REMARK  179  A    between atoms: _426  and  _428
REMARK  180  A    between atoms: _428  and  _429
REMARK  181  A    between atoms: _431  and  _433
REMARK  182  A    between atoms: _433  and  _434
REMARK  183  A    between atoms: _433  and  _436
REMARK  184  A    between atoms: _436  and  _437
REMARK  185  A    between atoms: _438  and  _440
REMARK  186  A    between atoms: _440  and  _441
REMARK  187  A    between atoms: _444  and  _446
REMARK  188  A    between atoms: _446  and  _447
REMARK  189  A    between atoms: _446  and  _449
REMARK  190  A    between atoms: _449  and  _450
REMARK  191  A    between atoms: _450  and  _451
REMARK  192  A    between atoms: _456  and  _458
REMARK  193  A    between atoms: _458  and  _459
REMARK  194  A    between atoms: _458  and  _461
REMARK  195  A    between atoms: _461  and  _462
REMARK  196  A    between atoms: _462  and  _463
REMARK  197  A    between atoms: _463  and  _464
REMARK  198  A    between atoms: _474  and  _475
REMARK  199  A    between atoms: _480  and  _482
REMARK  200  A    between atoms: _482  and  _483
REMARK  201  A    between atoms: _485  and  _487
REMARK  202  A    between atoms: _487  and  _488
REMARK  203  A    between atoms: _487  and  _490
REMARK  204  A    between atoms: _493  and  _495
REMARK  205  A    between atoms: _495  and  _496
REMARK  206  A    between atoms: _495  and  _498
REMARK  207  A    between atoms: _498  and  _499
REMARK  208  A    between atoms: _504  and  _505
REMARK  209  A    between atoms: _507  and  _509
REMARK  210  A    between atoms: _509  and  _510
REMARK  211  A    between atoms: _509  and  _512
REMARK  212  A    between atoms: _512  and  _513
REMARK                            x       y       z     vdW  Elec       q    Type
REMARK                         _______ _______ _______ _____ _____    ______ ____
ROOT
ATOM      1  O   HOH     1      36.510 -19.701  26.578  0.00  0.00    +0.000 OA
ENDROOT
TORSDOF 0
REMARK  Name = ../refined-set-2016/5e2o/5e2o_pocket.pdb
REMARK  212 active torsions:
REMARK  status: ('A' for Active; 'I' for Inactive)
REMARK    1  A    between atoms: _1  and  _5
REMARK    2  A    between atoms: _5  and  _6
REMARK    3  A    between atoms: _5  and  _8
REMARK    4  A    between atoms: _8  and  _9
REMARK    5  A    between atoms: _12  and  _14
REMARK    6  A    between atoms: _14  and  _15
REMARK    7  A    between atoms: _14  and  _17
REMARK    8  A    between atoms: _20  and  _22
REMARK    9  A    between atoms: _22  and  _23
REMARK   10  A    between atoms: _22  and  _25
REMARK   11  A    between atoms: _25  and  _26
REMARK   12  A    between atoms: _29  and  _31
REMARK   13  A    between atoms: _31  and  _32
REMARK   14  A    between atoms: _31  and  _34
REMARK   15  A    between atoms: _34  and  _35
REMARK   16  A    between atoms: _35  and  _36
REMARK   17  A    between atoms: _36  and  _37
REMARK   18  A    between atoms: _46  and  _48
REMARK   19  A    between atoms: _48  and  _49
REMARK   20  A    between atoms: _48  and  _51
REMARK   21  A    between atoms: _51  and  _52
REMARK   22  A    between atoms: _57  and  _59
REMARK   23  A    between atoms: _59  and  _60
REMARK   24  A    between atoms: _59  and  _62
REMARK   25  A    between atoms: _62  and  _63
REMARK   26  A    between atoms: _66  and  _68
REMARK   27  A    between atoms: _68  and  _69
REMARK   28  A    between atoms: _68  and  _71
REMARK   29  A    between atoms: _71  and  _72
REMARK   30  A    between atoms: _72  and  _107
REMARK   31  A    between atoms: _73  and  _75
REMARK   32  A    between atoms: _75  and  _76
REMARK   33  A    between atoms: _78  and  _80
REMARK   34  A    between atoms: _80  and  _81
REMARK   35  A    between atoms: _84  and  _86
REMARK   36  A    between atoms: _86  and  _87
REMARK   37  A    between atoms: _90  and  _92
REMARK   38  A    between atoms: _92  and  _93
REMARK   39  A    between atoms: _92  and  _95
REMARK   40  A    between atoms: _95  and  _96
REMARK   41  A    between atoms: _101  and  _103
REMARK   42  A    between atoms: _103  and  _104
REMARK   43  A    between atoms: _103  and  _106
REMARK   44  A    between atoms: _106  and  _107
REMARK   45  A    between atoms: _108  and  _110
REMARK   46  A    between atoms: _110  and  _111
REMARK   47  A    between atoms: _110  and  _113
REMARK   48  A    between atoms: _113  and  _114
REMARK   49  A    between atoms: _120  and  _122
REMARK   50  A    between atoms: _122  and  _123
REMARK   51  A    between atoms: _122  and  _125
REMARK   52  A    between atoms: _125  and  _126
REMARK   53  A    between atoms: _131  and  _132
REMARK   54  A    between atoms: _134  and  _136
REMARK   55  A    between atoms: _136  and  _137
REMARK   56  A    between atoms: _136  and  _139
REMARK   57  A    between atoms: _142  and  _144
REMARK   58  A    between atoms: _144  and  _145
REMARK   59  A    between atoms: _148  and  _150
REMARK   60  A    between atoms: _150  and  _151
REMARK   61  A    between atoms: _150  and  _153
REMARK   62  A    between atoms: _153  and  _154
REMARK   63  A    between atoms: _157  and  _159
REMARK   64  A    between atoms: _159  and  _160
REMARK   65  A    between atoms: _159  and  _162
REMARK   66  A    between atoms: _165  and  _167
REMARK   67  A    between atoms: _167  and  _168
REMARK   68  A    between atoms: _167  and  _170
REMARK   69  A    between atoms: _170  and  _171
REMARK   70  A    between atoms: _181  and  _183
REMARK   71  A    between atoms: _183  and  _184
REMARK   72  A    between atoms: _186  and  _188
REMARK   73  A    between atoms: _188  and  _189
REMARK   74  A    between atoms: _188  and  _191
REMARK   75  A    between atoms: _191  and  _192
REMARK   76  A    between atoms: _197  and  _198
REMARK   77  A    between atoms: _200  and  _202
REMARK   78  A    between atoms: _202  and  _203
REMARK   79  A    between atoms: _202  and  _205
REMARK   80  A    between atoms: _205  and  _206
REMARK   81  A    between atoms: _206  and  _207
REMARK   82  A    between atoms: _207  and  _208
REMARK   83  A    between atoms: _208  and  _209
REMARK   84  A    between atoms: _213  and  _215
REMARK   85  A    between atoms: _215  and  _216
REMARK   86  A    between atoms: _215  and  _218
REMARK   87  A    between atoms: _218  and  _219
REMARK   88  A    between atoms: _222  and  _224
REMARK   89  A    between atoms: _224  and  _225
REMARK   90  A    between atoms: _224  and  _227
REMARK   91  A    between atoms: _227  and  _228
REMARK   92  A    between atoms: _231  and  _233
REMARK   93  A    between atoms: _233  and  _234
REMARK   94  A    between atoms: _233  and  _236
REMARK   95  A    between atoms: _236  and  _237
REMARK   96  A    between atoms: _237  and  _238
REMARK   97  A    between atoms: _238  and  _239
REMARK   98  A    between atoms: _239  and  _240
REMARK   99  A    between atoms: _244  and  _246
REMARK  100  A    between atoms: _246  and  _247
REMARK  101  A    between atoms: _246  and  _249
REMARK  102  A    between atoms: _249  and  _250
REMARK  103  A    between atoms: _253  and  _255
REMARK  104  A    between atoms: _255  and  _256
REMARK  105  A    between atoms: _255  and  _258
REMARK  106  A    between atoms: _258  and  _259
REMARK  107  A    between atoms: _264  and  _265
REMARK  108  A    between atoms: _267  and  _269
REMARK  109  A    between atoms: _269  and  _270
REMARK  110  A    between atoms: _269  and  _272
REMARK  111  A    between atoms: _272  and  _273
REMARK  112  A    between atoms: _276  and  _278
REMARK  113  A    between atoms: _278  and  _279
REMARK  114  A    between atoms: _278  and  _281
REMARK  115  A    between atoms: _283  and  _285
REMARK  116  A    between atoms: _285  and  _286
REMARK  117  A    between atoms: _289  and  _291
REMARK  118  A    between atoms: _291  and  _292
REMARK  119  A    between atoms: _291  and  _294
REMARK  120  A    between atoms: _294  and  _295
REMARK  121  A    between atoms: _295  and  _296
REMARK  122  A    between atoms: _296  and  _297
REMARK  123  A    between atoms: _297  and  _298
REMARK  124  A    between atoms: _302  and  _304
REMARK  125  A    between atoms: _304  and  _305
REMARK  126  A    between atoms: _304  and  _307
REMARK  127  A    between atoms: _307  and  _308
REMARK  128  A    between atoms: _311  and  _313
REMARK  129  A    between atoms: _313  and  _314
REMARK  130  A    between atoms: _317  and  _319
REMARK  131  A    between atoms: _319  and  _320
REMARK  132  A    between atoms: _319  and  _322
REMARK  133  A    between atoms: _322  and  _323
REMARK  134  A    between atoms: _323  and  _437
REMARK  135  A    between atoms: _324  and  _326
REMARK  136  A    between atoms: _326  and  _327
REMARK  137  A    between atoms: _326  and  _329
REMARK  138  A    between atoms: _329  and  _330
REMARK  139  A    between atoms: _330  and  _331
REMARK  140  A    between atoms: _331  and  _332
REMARK  141  A    between atoms: _332  and  _333
REMARK  142  A    between atoms: _337  and  _339
REMARK  143  A    between atoms: _339  and  _340
REMARK  144  A    between atoms: _342  and  _344
REMARK  145  A    between atoms: _344  and  _345
REMARK  146  A    between atoms: _344  and  _347
REMARK  147  A    between atoms: _347  and  _348
REMARK  148  A    between atoms: _351  and  _353
REMARK  149  A    between atoms: _353  and  _354
REMARK  150  A    between atoms: _353  and  _356
REMARK  151  A    between atoms: _356  and  _357
REMARK  152  A    between atoms: _359  and  _361
REMARK  153  A    between atoms: _361  and  _362
REMARK  154  A    between atoms: _364  and  _366
REMARK  155  A    between atoms: _366  and  _367
REMARK  156  A    between atoms: _369  and  _371
REMARK  157  A    between atoms: _371  and  _372
REMARK  158  A    between atoms: _371  and  _374
REMARK  159  A    between atoms: _374  and  _375
REMARK  160  A    between atoms: _378  and  _380
REMARK  161  A    between atoms: _380  and  _381
REMARK  162  A    between atoms: _380  and  _383
REMARK  163  A    between atoms: _383  and  _384
REMARK  164  A    between atoms: _387  and  _389
REMARK  165  A    between atoms: _389  and  _390
REMARK  166  A    between atoms: _389  and  _392
REMARK  167  A    between atoms: _392  and  _393
REMARK  168  A    between atoms: _395  and  _397
REMARK  169  A    between atoms: _397  and  _398
REMARK  170  A    between atoms: _397  and  _400
REMARK  171  A    between atoms: _400  and  _401
REMARK  172  A    between atoms: _411  and  _413
REMARK  173  A    between atoms: _413  and  _414
REMARK  174  A    between atoms: _416  and  _418
REMARK  175  A    between atoms: _418  and  _419
REMARK  176  A    between atoms: _418  and  _421
REMARK  177  A    between atoms: _421  and  _422
REMARK  178  A    between atoms: _422  and  _423
REMARK  179  A    between atoms: _426  and  _428
REMARK  180  A    between atoms: _428  and  _429
REMARK  181  A    between atoms: _431  and  _433
REMARK  182  A    between atoms: _433  and  _434
REMARK  183  A    between atoms: _433  and  _436
REMARK  184  A    between atoms: _436  and  _437
REMARK  185  A    between atoms: _438  and  _440
REMARK  186  A    between atoms: _440  and  _441
REMARK  187  A    between atoms: _444  and  _446
REMARK  188  A    between atoms: _446  and  _447
REMARK  189  A    between atoms: _446  and  _449
REMARK  190  A    between atoms: _449  and  _450
REMARK  191  A    between atoms: _450  and  _451
REMARK  192  A    between atoms: _456  and  _458
REMARK  193  A    between atoms: _458  and  _459
REMARK  194  A    between atoms: _458  and  _461
REMARK  195  A    between atoms: _461  and  _462
REMARK  196  A    between atoms: _462  and  _463
REMARK  197  A    between atoms: _463  and  _464
REMARK  198  A    between atoms: _474  and  _475
REMARK  199  A    between atoms: _480  and  _482
REMARK  200  A    between atoms: _482  and  _483
REMARK  201  A    between atoms: _485  and  _487
REMARK  202  A    between atoms: _487  and  _488
REMARK  203  A    between atoms: _487  and  _490
REMARK  204  A    between atoms: _493  and  _495
REMARK  205  A    between atoms: _495  and  _496
REMARK  206  A    between atoms: _495  and  _498
REMARK  207  A    between atoms: _498  and  _499
REMARK  208  A    between atoms: _504  and  _505
REMARK  209  A    between atoms: _507  and  _509
REMARK  210  A    between atoms: _509  and  _510
REMARK  211  A    between atoms: _509  and  _512
REMARK  212  A    between atoms: _512  and  _513
REMARK                            x       y       z     vdW  Elec       q    Type
REMARK                         _______ _______ _______ _____ _____    ______ ____
ROOT
ATOM      1  O   HOH     1      38.161 -17.323  37.669  0.00  0.00    +0.000 OA
ENDROOT
TORSDOF 0
REMARK  Name = ../refined-set-2016/5e2o/5e2o_pocket.pdb
REMARK  212 active torsions:
REMARK  status: ('A' for Active; 'I' for Inactive)
REMARK    1  A    between atoms: _1  and  _5
REMARK    2  A    between atoms: _5  and  _6
REMARK    3  A    between atoms: _5  and  _8
REMARK    4  A    between atoms: _8  and  _9
REMARK    5  A    between atoms: _12  and  _14
REMARK    6  A    between atoms: _14  and  _15
REMARK    7  A    between atoms: _14  and  _17
REMARK    8  A    between atoms: _20  and  _22
REMARK    9  A    between atoms: _22  and  _23
REMARK   10  A    between atoms: _22  and  _25
REMARK   11  A    between atoms: _25  and  _26
REMARK   12  A    between atoms: _29  and  _31
REMARK   13  A    between atoms: _31  and  _32
REMARK   14  A    between atoms: _31  and  _34
REMARK   15  A    between atoms: _34  and  _35
REMARK   16  A    between atoms: _35  and  _36
REMARK   17  A    between atoms: _36  and  _37
REMARK   18  A    between atoms: _46  and  _48
REMARK   19  A    between atoms: _48  and  _49
REMARK   20  A    between atoms: _48  and  _51
REMARK   21  A    between atoms: _51  and  _52
REMARK   22  A    between atoms: _57  and  _59
REMARK   23  A    between atoms: _59  and  _60
REMARK   24  A    between atoms: _59  and  _62
REMARK   25  A    between atoms: _62  and  _63
REMARK   26  A    between atoms: _66  and  _68
REMARK   27  A    between atoms: _68  and  _69
REMARK   28  A    between atoms: _68  and  _71
REMARK   29  A    between atoms: _71  and  _72
REMARK   30  A    between atoms: _72  and  _107
REMARK   31  A    between atoms: _73  and  _75
REMARK   32  A    between atoms: _75  and  _76
REMARK   33  A    between atoms: _78  and  _80
REMARK   34  A    between atoms: _80  and  _81
REMARK   35  A    between atoms: _84  and  _86
REMARK   36  A    between atoms: _86  and  _87
REMARK   37  A    between atoms: _90  and  _92
REMARK   38  A    between atoms: _92  and  _93
REMARK   39  A    between atoms: _92  and  _95
REMARK   40  A    between atoms: _95  and  _96
REMARK   41  A    between atoms: _101  and  _103
REMARK   42  A    between atoms: _103  and  _104
REMARK   43  A    between atoms: _103  and  _106
REMARK   44  A    between atoms: _106  and  _107
REMARK   45  A    between atoms: _108  and  _110
REMARK   46  A    between atoms: _110  and  _111
REMARK   47  A    between atoms: _110  and  _113
REMARK   48  A    between atoms: _113  and  _114
REMARK   49  A    between atoms: _120  and  _122
REMARK   50  A    between atoms: _122  and  _123
REMARK   51  A    between atoms: _122  and  _125
REMARK   52  A    between atoms: _125  and  _126
REMARK   53  A    between atoms: _131  and  _132
REMARK   54  A    between atoms: _134  and  _136
REMARK   55  A    between atoms: _136  and  _137
REMARK   56  A    between atoms: _136  and  _139
REMARK   57  A    between atoms: _142  and  _144
REMARK   58  A    between atoms: _144  and  _145
REMARK   59  A    between atoms: _148  and  _150
REMARK   60  A    between atoms: _150  and  _151
REMARK   61  A    between atoms: _150  and  _153
REMARK   62  A    between atoms: _153  and  _154
REMARK   63  A    between atoms: _157  and  _159
REMARK   64  A    between atoms: _159  and  _160
REMARK   65  A    between atoms: _159  and  _162
REMARK   66  A    between atoms: _165  and  _167
REMARK   67  A    between atoms: _167  and  _168
REMARK   68  A    between atoms: _167  and  _170
REMARK   69  A    between atoms: _170  and  _171
REMARK   70  A    between atoms: _181  and  _183
REMARK   71  A    between atoms: _183  and  _184
REMARK   72  A    between atoms: _186  and  _188
REMARK   73  A    between atoms: _188  and  _189
REMARK   74  A    between atoms: _188  and  _191
REMARK   75  A    between atoms: _191  and  _192
REMARK   76  A    between atoms: _197  and  _198
REMARK   77  A    between atoms: _200  and  _202
REMARK   78  A    between atoms: _202  and  _203
REMARK   79  A    between atoms: _202  and  _205
REMARK   80  A    between atoms: _205  and  _206
REMARK   81  A    between atoms: _206  and  _207
REMARK   82  A    between atoms: _207  and  _208
REMARK   83  A    between atoms: _208  and  _209
REMARK   84  A    between atoms: _213  and  _215
REMARK   85  A    between atoms: _215  and  _216
REMARK   86  A    between atoms: _215  and  _218
REMARK   87  A    between atoms: _218  and  _219
REMARK   88  A    between atoms: _222  and  _224
REMARK   89  A    between atoms: _224  and  _225
REMARK   90  A    between atoms: _224  and  _227
REMARK   91  A    between atoms: _227  and  _228
REMARK   92  A    between atoms: _231  and  _233
REMARK   93  A    between atoms: _233  and  _234
REMARK   94  A    between atoms: _233  and  _236
REMARK   95  A    between atoms: _236  and  _237
REMARK   96  A    between atoms: _237  and  _238
REMARK   97  A    between atoms: _238  and  _239
REMARK   98  A    between atoms: _239  and  _240
REMARK   99  A    between atoms: _244  and  _246
REMARK  100  A    between atoms: _246  and  _247
REMARK  101  A    between atoms: _246  and  _249
REMARK  102  A    between atoms: _249  and  _250
REMARK  103  A    between atoms: _253  and  _255
REMARK  104  A    between atoms: _255  and  _256
REMARK  105  A    between atoms: _255  and  _258
REMARK  106  A    between atoms: _258  and  _259
REMARK  107  A    between atoms: _264  and  _265
REMARK  108  A    between atoms: _267  and  _269
REMARK  109  A    between atoms: _269  and  _270
REMARK  110  A    between atoms: _269  and  _272
REMARK  111  A    between atoms: _272  and  _273
REMARK  112  A    between atoms: _276  and  _278
REMARK  113  A    between atoms: _278  and  _279
REMARK  114  A    between atoms: _278  and  _281
REMARK  115  A    between atoms: _283  and  _285
REMARK  116  A    between atoms: _285  and  _286
REMARK  117  A    between atoms: _289  and  _291
REMARK  118  A    between atoms: _291  and  _292
REMARK  119  A    between atoms: _291  and  _294
REMARK  120  A    between atoms: _294  and  _295
REMARK  121  A    between atoms: _295  and  _296
REMARK  122  A    between atoms: _296  and  _297
REMARK  123  A    between atoms: _297  and  _298
REMARK  124  A    between atoms: _302  and  _304
REMARK  125  A    between atoms: _304  and  _305
REMARK  126  A    between atoms: _304  and  _307
REMARK  127  A    between atoms: _307  and  _308
REMARK  128  A    between atoms: _311  and  _313
REMARK  129  A    between atoms: _313  and  _314
REMARK  130  A    between atoms: _317  and  _319
REMARK  131  A    between atoms: _319  and  _320
REMARK  132  A    between atoms: _319  and  _322
REMARK  133  A    between atoms: _322  and  _323
REMARK  134  A    between atoms: _323  and  _437
REMARK  135  A    between atoms: _324  and  _326
REMARK  136  A    between atoms: _326  and  _327
REMARK  137  A    between atoms: _326  and  _329
REMARK  138  A    between atoms: _329  and  _330
REMARK  139  A    between atoms: _330  and  _331
REMARK  140  A    between atoms: _331  and  _332
REMARK  141  A    between atoms: _332  and  _333
REMARK  142  A    between atoms: _337  and  _339
REMARK  143  A    between atoms: _339  and  _340
REMARK  144  A    between atoms: _342  and  _344
REMARK  145  A    between atoms: _344  and  _345
REMARK  146  A    between atoms: _344  and  _347
REMARK  147  A    between atoms: _347  and  _348
REMARK  148  A    between atoms: _351  and  _353
REMARK  149  A    between atoms: _353  and  _354
REMARK  150  A    between atoms: _353  and  _356
REMARK  151  A    between atoms: _356  and  _357
REMARK  152  A    between atoms: _359  and  _361
REMARK  153  A    between atoms: _361  and  _362
REMARK  154  A    between atoms: _364  and  _366
REMARK  155  A    between atoms: _366  and  _367
REMARK  156  A    between atoms: _369  and  _371
REMARK  157  A    between atoms: _371  and  _372
REMARK  158  A    between atoms: _371  and  _374
REMARK  159  A    between atoms: _374  and  _375
REMARK  160  A    between atoms: _378  and  _380
REMARK  161  A    between atoms: _380  and  _381
REMARK  162  A    between atoms: _380  and  _383
REMARK  163  A    between atoms: _383  and  _384
REMARK  164  A    between atoms: _387  and  _389
REMARK  165  A    between atoms: _389  and  _390
REMARK  166  A    between atoms: _389  and  _392
REMARK  167  A    between atoms: _392  and  _393
REMARK  168  A    between atoms: _395  and  _397
REMARK  169  A    between atoms: _397  and  _398
REMARK  170  A    between atoms: _397  and  _400
REMARK  171  A    between atoms: _400  and  _401
REMARK  172  A    between atoms: _411  and  _413
REMARK  173  A    between atoms: _413  and  _414
REMARK  174  A    between atoms: _416  and  _418
REMARK  175  A    between atoms: _418  and  _419
REMARK  176  A    between atoms: _418  and  _421
REMARK  177  A    between atoms: _421  and  _422
REMARK  178  A    between atoms: _422  and  _423
REMARK  179  A    between atoms: _426  and  _428
REMARK  180  A    between atoms: _428  and  _429
REMARK  181  A    between atoms: _431  and  _433
REMARK  182  A    between atoms: _433  and  _434
REMARK  183  A    between atoms: _433  and  _436
REMARK  184  A    between atoms: _436  and  _437
REMARK  185  A    between atoms: _438  and  _440
REMARK  186  A    between atoms: _440  and  _441
REMARK  187  A    between atoms: _444  and  _446
REMARK  188  A    between atoms: _446  and  _447
REMARK  189  A    between atoms: _446  and  _449
REMARK  190  A    between atoms: _449  and  _450
REMARK  191  A    between atoms: _450  and  _451
REMARK  192  A    between atoms: _456  and  _458
REMARK  193  A    between atoms: _458  and  _459
REMARK  194  A    between atoms: _458  and  _461
REMARK  195  A    between atoms: _461  and  _462
REMARK  196  A    between atoms: _462  and  _463
REMARK  197  A    between atoms: _463  and  _464
REMARK  198  A    between atoms: _474  and  _475
REMARK  199  A    between atoms: _480  and  _482
REMARK  200  A    between atoms: _482  and  _483
REMARK  201  A    between atoms: _485  and  _487
REMARK  202  A    between atoms: _487  and  _488
REMARK  203  A    between atoms: _487  and  _490
REMARK  204  A    between atoms: _493  and  _495
REMARK  205  A    between atoms: _495  and  _496
REMARK  206  A    between atoms: _495  and  _498
REMARK  207  A    between atoms: _498  and  _499
REMARK  208  A    between atoms: _504  and  _505
REMARK  209  A    between atoms: _507  and  _509
REMARK  210  A    between atoms: _509  and  _510
REMARK  211  A    between atoms: _509  and  _512
REMARK  212  A    between atoms: _512  and  _513
REMARK                            x       y       z     vdW  Elec       q    Type
REMARK                         _______ _______ _______ _____ _____    ______ ____
ROOT
ATOM      1  O   HOH     1      38.061 -26.121  26.408  0.00  0.00    +0.000 OA
ENDROOT
TORSDOF 0
REMARK  Name = ../refined-set-2016/5e2o/5e2o_pocket.pdb
REMARK  212 active torsions:
REMARK  status: ('A' for Active; 'I' for Inactive)
REMARK    1  A    between atoms: _1  and  _5
REMARK    2  A    between atoms: _5  and  _6
REMARK    3  A    between atoms: _5  and  _8
REMARK    4  A    between atoms: _8  and  _9
REMARK    5  A    between atoms: _12  and  _14
REMARK    6  A    between atoms: _14  and  _15
REMARK    7  A    between atoms: _14  and  _17
REMARK    8  A    between atoms: _20  and  _22
REMARK    9  A    between atoms: _22  and  _23
REMARK   10  A    between atoms: _22  and  _25
REMARK   11  A    between atoms: _25  and  _26
REMARK   12  A    between atoms: _29  and  _31
REMARK   13  A    between atoms: _31  and  _32
REMARK   14  A    between atoms: _31  and  _34
REMARK   15  A    between atoms: _34  and  _35
REMARK   16  A    between atoms: _35  and  _36
REMARK   17  A    between atoms: _36  and  _37
REMARK   18  A    between atoms: _46  and  _48
REMARK   19  A    between atoms: _48  and  _49
REMARK   20  A    between atoms: _48  and  _51
REMARK   21  A    between atoms: _51  and  _52
REMARK   22  A    between atoms: _57  and  _59
REMARK   23  A    between atoms: _59  and  _60
REMARK   24  A    between atoms: _59  and  _62
REMARK   25  A    between atoms: _62  and  _63
REMARK   26  A    between atoms: _66  and  _68
REMARK   27  A    between atoms: _68  and  _69
REMARK   28  A    between atoms: _68  and  _71
REMARK   29  A    between atoms: _71  and  _72
REMARK   30  A    between atoms: _72  and  _107
REMARK   31  A    between atoms: _73  and  _75
REMARK   32  A    between atoms: _75  and  _76
REMARK   33  A    between atoms: _78  and  _80
REMARK   34  A    between atoms: _80  and  _81
REMARK   35  A    between atoms: _84  and  _86
REMARK   36  A    between atoms: _86  and  _87
REMARK   37  A    between atoms: _90  and  _92
REMARK   38  A    between atoms: _92  and  _93
REMARK   39  A    between atoms: _92  and  _95
REMARK   40  A    between atoms: _95  and  _96
REMARK   41  A    between atoms: _101  and  _103
REMARK   42  A    between atoms: _103  and  _104
REMARK   43  A    between atoms: _103  and  _106
REMARK   44  A    between atoms: _106  and  _107
REMARK   45  A    between atoms: _108  and  _110
REMARK   46  A    between atoms: _110  and  _111
REMARK   47  A    between atoms: _110  and  _113
REMARK   48  A    between atoms: _113  and  _114
REMARK   49  A    between atoms: _120  and  _122
REMARK   50  A    between atoms: _122  and  _123
REMARK   51  A    between atoms: _122  and  _125
REMARK   52  A    between atoms: _125  and  _126
REMARK   53  A    between atoms: _131  and  _132
REMARK   54  A    between atoms: _134  and  _136
REMARK   55  A    between atoms: _136  and  _137
REMARK   56  A    between atoms: _136  and  _139
REMARK   57  A    between atoms: _142  and  _144
REMARK   58  A    between atoms: _144  and  _145
REMARK   59  A    between atoms: _148  and  _150
REMARK   60  A    between atoms: _150  and  _151
REMARK   61  A    between atoms: _150  and  _153
REMARK   62  A    between atoms: _153  and  _154
REMARK   63  A    between atoms: _157  and  _159
REMARK   64  A    between atoms: _159  and  _160
REMARK   65  A    between atoms: _159  and  _162
REMARK   66  A    between atoms: _165  and  _167
REMARK   67  A    between atoms: _167  and  _168
REMARK   68  A    between atoms: _167  and  _170
REMARK   69  A    between atoms: _170  and  _171
REMARK   70  A    between atoms: _181  and  _183
REMARK   71  A    between atoms: _183  and  _184
REMARK   72  A    between atoms: _186  and  _188
REMARK   73  A    between atoms: _188  and  _189
REMARK   74  A    between atoms: _188  and  _191
REMARK   75  A    between atoms: _191  and  _192
REMARK   76  A    between atoms: _197  and  _198
REMARK   77  A    between atoms: _200  and  _202
REMARK   78  A    between atoms: _202  and  _203
REMARK   79  A    between atoms: _202  and  _205
REMARK   80  A    between atoms: _205  and  _206
REMARK   81  A    between atoms: _206  and  _207
REMARK   82  A    between atoms: _207  and  _208
REMARK   83  A    between atoms: _208  and  _209
REMARK   84  A    between atoms: _213  and  _215
REMARK   85  A    between atoms: _215  and  _216
REMARK   86  A    between atoms: _215  and  _218
REMARK   87  A    between atoms: _218  and  _219
REMARK   88  A    between atoms: _222  and  _224
REMARK   89  A    between atoms: _224  and  _225
REMARK   90  A    between atoms: _224  and  _227
REMARK   91  A    between atoms: _227  and  _228
REMARK   92  A    between atoms: _231  and  _233
REMARK   93  A    between atoms: _233  and  _234
REMARK   94  A    between atoms: _233  and  _236
REMARK   95  A    between atoms: _236  and  _237
REMARK   96  A    between atoms: _237  and  _238
REMARK   97  A    between atoms: _238  and  _239
REMARK   98  A    between atoms: _239  and  _240
REMARK   99  A    between atoms: _244  and  _246
REMARK  100  A    between atoms: _246  and  _247
REMARK  101  A    between atoms: _246  and  _249
REMARK  102  A    between atoms: _249  and  _250
REMARK  103  A    between atoms: _253  and  _255
REMARK  104  A    between atoms: _255  and  _256
REMARK  105  A    between atoms: _255  and  _258
REMARK  106  A    between atoms: _258  and  _259
REMARK  107  A    between atoms: _264  and  _265
REMARK  108  A    between atoms: _267  and  _269
REMARK  109  A    between atoms: _269  and  _270
REMARK  110  A    between atoms: _269  and  _272
REMARK  111  A    between atoms: _272  and  _273
REMARK  112  A    between atoms: _276  and  _278
REMARK  113  A    between atoms: _278  and  _279
REMARK  114  A    between atoms: _278  and  _281
REMARK  115  A    between atoms: _283  and  _285
REMARK  116  A    between atoms: _285  and  _286
REMARK  117  A    between atoms: _289  and  _291
REMARK  118  A    between atoms: _291  and  _292
REMARK  119  A    between atoms: _291  and  _294
REMARK  120  A    between atoms: _294  and  _295
REMARK  121  A    between atoms: _295  and  _296
REMARK  122  A    between atoms: _296  and  _297
REMARK  123  A    between atoms: _297  and  _298
REMARK  124  A    between atoms: _302  and  _304
REMARK  125  A    between atoms: _304  and  _305
REMARK  126  A    between atoms: _304  and  _307
REMARK  127  A    between atoms: _307  and  _308
REMARK  128  A    between atoms: _311  and  _313
REMARK  129  A    between atoms: _313  and  _314
REMARK  130  A    between atoms: _317  and  _319
REMARK  131  A    between atoms: _319  and  _320
REMARK  132  A    between atoms: _319  and  _322
REMARK  133  A    between atoms: _322  and  _323
REMARK  134  A    between atoms: _323  and  _437
REMARK  135  A    between atoms: _324  and  _326
REMARK  136  A    between atoms: _326  and  _327
REMARK  137  A    between atoms: _326  and  _329
REMARK  138  A    between atoms: _329  and  _330
REMARK  139  A    between atoms: _330  and  _331
REMARK  140  A    between atoms: _331  and  _332
REMARK  141  A    between atoms: _332  and  _333
REMARK  142  A    between atoms: _337  and  _339
REMARK  143  A    between atoms: _339  and  _340
REMARK  144  A    between atoms: _342  and  _344
REMARK  145  A    between atoms: _344  and  _345
REMARK  146  A    between atoms: _344  and  _347
REMARK  147  A    between atoms: _347  and  _348
REMARK  148  A    between atoms: _351  and  _353
REMARK  149  A    between atoms: _353  and  _354
REMARK  150  A    between atoms: _353  and  _356
REMARK  151  A    between atoms: _356  and  _357
REMARK  152  A    between atoms: _359  and  _361
REMARK  153  A    between atoms: _361  and  _362
REMARK  154  A    between atoms: _364  and  _366
REMARK  155  A    between atoms: _366  and  _367
REMARK  156  A    between atoms: _369  and  _371
REMARK  157  A    between atoms: _371  and  _372
REMARK  158  A    between atoms: _371  and  _374
REMARK  159  A    between atoms: _374  and  _375
REMARK  160  A    between atoms: _378  and  _380
REMARK  161  A    between atoms: _380  and  _381
REMARK  162  A    between atoms: _380  and  _383
REMARK  163  A    between atoms: _383  and  _384
REMARK  164  A    between atoms: _387  and  _389
REMARK  165  A    between atoms: _389  and  _390
REMARK  166  A    between atoms: _389  and  _392
REMARK  167  A    between atoms: _392  and  _393
REMARK  168  A    between atoms: _395  and  _397
REMARK  169  A    between atoms: _397  and  _398
REMARK  170  A    between atoms: _397  and  _400
REMARK  171  A    between atoms: _400  and  _401
REMARK  172  A    between atoms: _411  and  _413
REMARK  173  A    between atoms: _413  and  _414
REMARK  174  A    between atoms: _416  and  _418
REMARK  175  A    between atoms: _418  and  _419
REMARK  176  A    between atoms: _418  and  _421
REMARK  177  A    between atoms: _421  and  _422
REMARK  178  A    between atoms: _422  and  _423
REMARK  179  A    between atoms: _426  and  _428
REMARK  180  A    between atoms: _428  and  _429
REMARK  181  A    between atoms: _431  and  _433
REMARK  182  A    between atoms: _433  and  _434
REMARK  183  A    between atoms: _433  and  _436
REMARK  184  A    between atoms: _436  and  _437
REMARK  185  A    between atoms: _438  and  _440
REMARK  186  A    between atoms: _440  and  _441
REMARK  187  A    between atoms: _444  and  _446
REMARK  188  A    between atoms: _446  and  _447
REMARK  189  A    between atoms: _446  and  _449
REMARK  190  A    between atoms: _449  and  _450
REMARK  191  A    between atoms: _450  and  _451
REMARK  192  A    between atoms: _456  and  _458
REMARK  193  A    between atoms: _458  and  _459
REMARK  194  A    between atoms: _458  and  _461
REMARK  195  A    between atoms: _461  and  _462
REMARK  196  A    between atoms: _462  and  _463
REMARK  197  A    between atoms: _463  and  _464
REMARK  198  A    between atoms: _474  and  _475
REMARK  199  A    between atoms: _480  and  _482
REMARK  200  A    between atoms: _482  and  _483
REMARK  201  A    between atoms: _485  and  _487
REMARK  202  A    between atoms: _487  and  _488
REMARK  203  A    between atoms: _487  and  _490
REMARK  204  A    between atoms: _493  and  _495
REMARK  205  A    between atoms: _495  and  _496
REMARK  206  A    between atoms: _495  and  _498
REMARK  207  A    between atoms: _498  and  _499
REMARK  208  A    between atoms: _504  and  _505
REMARK  209  A    between atoms: _507  and  _509
REMARK  210  A    between atoms: _509  and  _510
REMARK  211  A    between atoms: _509  and  _512
REMARK  212  A    between atoms: _512  and  _513
REMARK                            x       y       z     vdW  Elec       q    Type
REMARK                         _______ _______ _______ _____ _____    ______ ____
ROOT
ATOM      1  O   HOH     1      51.642 -28.382  31.397  0.00  0.00    +0.000 OA
ENDROOT
TORSDOF 0
REMARK  Name = ../refined-set-2016/5e2o/5e2o_pocket.pdb
REMARK  212 active torsions:
REMARK  status: ('A' for Active; 'I' for Inactive)
REMARK    1  A    between atoms: _1  and  _5
REMARK    2  A    between atoms: _5  and  _6
REMARK    3  A    between atoms: _5  and  _8
REMARK    4  A    between atoms: _8  and  _9
REMARK    5  A    between atoms: _12  and  _14
REMARK    6  A    between atoms: _14  and  _15
REMARK    7  A    between atoms: _14  and  _17
REMARK    8  A    between atoms: _20  and  _22
REMARK    9  A    between atoms: _22  and  _23
REMARK   10  A    between atoms: _22  and  _25
REMARK   11  A    between atoms: _25  and  _26
REMARK   12  A    between atoms: _29  and  _31
REMARK   13  A    between atoms: _31  and  _32
REMARK   14  A    between atoms: _31  and  _34
REMARK   15  A    between atoms: _34  and  _35
REMARK   16  A    between atoms: _35  and  _36
REMARK   17  A    between atoms: _36  and  _37
REMARK   18  A    between atoms: _46  and  _48
REMARK   19  A    between atoms: _48  and  _49
REMARK   20  A    between atoms: _48  and  _51
REMARK   21  A    between atoms: _51  and  _52
REMARK   22  A    between atoms: _57  and  _59
REMARK   23  A    between atoms: _59  and  _60
REMARK   24  A    between atoms: _59  and  _62
REMARK   25  A    between atoms: _62  and  _63
REMARK   26  A    between atoms: _66  and  _68
REMARK   27  A    between atoms: _68  and  _69
REMARK   28  A    between atoms: _68  and  _71
REMARK   29  A    between atoms: _71  and  _72
REMARK   30  A    between atoms: _72  and  _107
REMARK   31  A    between atoms: _73  and  _75
REMARK   32  A    between atoms: _75  and  _76
REMARK   33  A    between atoms: _78  and  _80
REMARK   34  A    between atoms: _80  and  _81
REMARK   35  A    between atoms: _84  and  _86
REMARK   36  A    between atoms: _86  and  _87
REMARK   37  A    between atoms: _90  and  _92
REMARK   38  A    between atoms: _92  and  _93
REMARK   39  A    between atoms: _92  and  _95
REMARK   40  A    between atoms: _95  and  _96
REMARK   41  A    between atoms: _101  and  _103
REMARK   42  A    between atoms: _103  and  _104
REMARK   43  A    between atoms: _103  and  _106
REMARK   44  A    between atoms: _106  and  _107
REMARK   45  A    between atoms: _108  and  _110
REMARK   46  A    between atoms: _110  and  _111
REMARK   47  A    between atoms: _110  and  _113
REMARK   48  A    between atoms: _113  and  _114
REMARK   49  A    between atoms: _120  and  _122
REMARK   50  A    between atoms: _122  and  _123
REMARK   51  A    between atoms: _122  and  _125
REMARK   52  A    between atoms: _125  and  _126
REMARK   53  A    between atoms: _131  and  _132
REMARK   54  A    between atoms: _134  and  _136
REMARK   55  A    between atoms: _136  and  _137
REMARK   56  A    between atoms: _136  and  _139
REMARK   57  A    between atoms: _142  and  _144
REMARK   58  A    between atoms: _144  and  _145
REMARK   59  A    between atoms: _148  and  _150
REMARK   60  A    between atoms: _150  and  _151
REMARK   61  A    between atoms: _150  and  _153
REMARK   62  A    between atoms: _153  and  _154
REMARK   63  A    between atoms: _157  and  _159
REMARK   64  A    between atoms: _159  and  _160
REMARK   65  A    between atoms: _159  and  _162
REMARK   66  A    between atoms: _165  and  _167
REMARK   67  A    between atoms: _167  and  _168
REMARK   68  A    between atoms: _167  and  _170
REMARK   69  A    between atoms: _170  and  _171
REMARK   70  A    between atoms: _181  and  _183
REMARK   71  A    between atoms: _183  and  _184
REMARK   72  A    between atoms: _186  and  _188
REMARK   73  A    between atoms: _188  and  _189
REMARK   74  A    between atoms: _188  and  _191
REMARK   75  A    between atoms: _191  and  _192
REMARK   76  A    between atoms: _197  and  _198
REMARK   77  A    between atoms: _200  and  _202
REMARK   78  A    between atoms: _202  and  _203
REMARK   79  A    between atoms: _202  and  _205
REMARK   80  A    between atoms: _205  and  _206
REMARK   81  A    between atoms: _206  and  _207
REMARK   82  A    between atoms: _207  and  _208
REMARK   83  A    between atoms: _208  and  _209
REMARK   84  A    between atoms: _213  and  _215
REMARK   85  A    between atoms: _215  and  _216
REMARK   86  A    between atoms: _215  and  _218
REMARK   87  A    between atoms: _218  and  _219
REMARK   88  A    between atoms: _222  and  _224
REMARK   89  A    between atoms: _224  and  _225
REMARK   90  A    between atoms: _224  and  _227
REMARK   91  A    between atoms: _227  and  _228
REMARK   92  A    between atoms: _231  and  _233
REMARK   93  A    between atoms: _233  and  _234
REMARK   94  A    between atoms: _233  and  _236
REMARK   95  A    between atoms: _236  and  _237
REMARK   96  A    between atoms: _237  and  _238
REMARK   97  A    between atoms: _238  and  _239
REMARK   98  A    between atoms: _239  and  _240
REMARK   99  A    between atoms: _244  and  _246
REMARK  100  A    between atoms: _246  and  _247
REMARK  101  A    between atoms: _246  and  _249
REMARK  102  A    between atoms: _249  and  _250
REMARK  103  A    between atoms: _253  and  _255
REMARK  104  A    between atoms: _255  and  _256
REMARK  105  A    between atoms: _255  and  _258
REMARK  106  A    between atoms: _258  and  _259
REMARK  107  A    between atoms: _264  and  _265
REMARK  108  A    between atoms: _267  and  _269
REMARK  109  A    between atoms: _269  and  _270
REMARK  110  A    between atoms: _269  and  _272
REMARK  111  A    between atoms: _272  and  _273
REMARK  112  A    between atoms: _276  and  _278
REMARK  113  A    between atoms: _278  and  _279
REMARK  114  A    between atoms: _278  and  _281
REMARK  115  A    between atoms: _283  and  _285
REMARK  116  A    between atoms: _285  and  _286
REMARK  117  A    between atoms: _289  and  _291
REMARK  118  A    between atoms: _291  and  _292
REMARK  119  A    between atoms: _291  and  _294
REMARK  120  A    between atoms: _294  and  _295
REMARK  121  A    between atoms: _295  and  _296
REMARK  122  A    between atoms: _296  and  _297
REMARK  123  A    between atoms: _297  and  _298
REMARK  124  A    between atoms: _302  and  _304
REMARK  125  A    between atoms: _304  and  _305
REMARK  126  A    between atoms: _304  and  _307
REMARK  127  A    between atoms: _307  and  _308
REMARK  128  A    between atoms: _311  and  _313
REMARK  129  A    between atoms: _313  and  _314
REMARK  130  A    between atoms: _317  and  _319
REMARK  131  A    between atoms: _319  and  _320
REMARK  132  A    between atoms: _319  and  _322
REMARK  133  A    between atoms: _322  and  _323
REMARK  134  A    between atoms: _323  and  _437
REMARK  135  A    between atoms: _324  and  _326
REMARK  136  A    between atoms: _326  and  _327
REMARK  137  A    between atoms: _326  and  _329
REMARK  138  A    between atoms: _329  and  _330
REMARK  139  A    between atoms: _330  and  _331
REMARK  140  A    between atoms: _331  and  _332
REMARK  141  A    between atoms: _332  and  _333
REMARK  142  A    between atoms: _337  and  _339
REMARK  143  A    between atoms: _339  and  _340
REMARK  144  A    between atoms: _342  and  _344
REMARK  145  A    between atoms: _344  and  _345
REMARK  146  A    between atoms: _344  and  _347
REMARK  147  A    between atoms: _347  and  _348
REMARK  148  A    between atoms: _351  and  _353
REMARK  149  A    between atoms: _353  and  _354
REMARK  150  A    between atoms: _353  and  _356
REMARK  151  A    between atoms: _356  and  _357
REMARK  152  A    between atoms: _359  and  _361
REMARK  153  A    between atoms: _361  and  _362
REMARK  154  A    between atoms: _364  and  _366
REMARK  155  A    between atoms: _366  and  _367
REMARK  156  A    between atoms: _369  and  _371
REMARK  157  A    between atoms: _371  and  _372
REMARK  158  A    between atoms: _371  and  _374
REMARK  159  A    between atoms: _374  and  _375
REMARK  160  A    between atoms: _378  and  _380
REMARK  161  A    between atoms: _380  and  _381
REMARK  162  A    between atoms: _380  and  _383
REMARK  163  A    between atoms: _383  and  _384
REMARK  164  A    between atoms: _387  and  _389
REMARK  165  A    between atoms: _389  and  _390
REMARK  166  A    between atoms: _389  and  _392
REMARK  167  A    between atoms: _392  and  _393
REMARK  168  A    between atoms: _395  and  _397
REMARK  169  A    between atoms: _397  and  _398
REMARK  170  A    between atoms: _397  and  _400
REMARK  171  A    between atoms: _400  and  _401
REMARK  172  A    between atoms: _411  and  _413
REMARK  173  A    between atoms: _413  and  _414
REMARK  174  A    between atoms: _416  and  _418
REMARK  175  A    between atoms: _418  and  _419
REMARK  176  A    between atoms: _418  and  _421
REMARK  177  A    between atoms: _421  and  _422
REMARK  178  A    between atoms: _422  and  _423
REMARK  179  A    between atoms: _426  and  _428
REMARK  180  A    between atoms: _428  and  _429
REMARK  181  A    between atoms: _431  and  _433
REMARK  182  A    between atoms: _433  and  _434
REMARK  183  A    between atoms: _433  and  _436
REMARK  184  A    between atoms: _436  and  _437
REMARK  185  A    between atoms: _438  and  _440
REMARK  186  A    between atoms: _440  and  _441
REMARK  187  A    between atoms: _444  and  _446
REMARK  188  A    between atoms: _446  and  _447
REMARK  189  A    between atoms: _446  and  _449
REMARK  190  A    between atoms: _449  and  _450
REMARK  191  A    between atoms: _450  and  _451
REMARK  192  A    between atoms: _456  and  _458
REMARK  193  A    between atoms: _458  and  _459
REMARK  194  A    between atoms: _458  and  _461
REMARK  195  A    between atoms: _461  and  _462
REMARK  196  A    between atoms: _462  and  _463
REMARK  197  A    between atoms: _463  and  _464
REMARK  198  A    between atoms: _474  and  _475
REMARK  199  A    between atoms: _480  and  _482
REMARK  200  A    between atoms: _482  and  _483
REMARK  201  A    between atoms: _485  and  _487
REMARK  202  A    between atoms: _487  and  _488
REMARK  203  A    between atoms: _487  and  _490
REMARK  204  A    between atoms: _493  and  _495
REMARK  205  A    between atoms: _495  and  _496
REMARK  206  A    between atoms: _495  and  _498
REMARK  207  A    between atoms: _498  and  _499
REMARK  208  A    between atoms: _504  and  _505
REMARK  209  A    between atoms: _507  and  _509
REMARK  210  A    between atoms: _509  and  _510
REMARK  211  A    between atoms: _509  and  _512
REMARK  212  A    between atoms: _512  and  _513
REMARK                            x       y       z     vdW  Elec       q    Type
REMARK                         _______ _______ _______ _____ _____    ______ ____
ROOT
ATOM      1  O   HOH     1      45.149 -25.102  29.474  0.00  0.00    +0.000 OA
ENDROOT
TORSDOF 0
REMARK  Name = ../refined-set-2016/5e2o/5e2o_pocket.pdb
REMARK  212 active torsions:
REMARK  status: ('A' for Active; 'I' for Inactive)
REMARK    1  A    between atoms: _1  and  _5
REMARK    2  A    between atoms: _5  and  _6
REMARK    3  A    between atoms: _5  and  _8
REMARK    4  A    between atoms: _8  and  _9
REMARK    5  A    between atoms: _12  and  _14
REMARK    6  A    between atoms: _14  and  _15
REMARK    7  A    between atoms: _14  and  _17
REMARK    8  A    between atoms: _20  and  _22
REMARK    9  A    between atoms: _22  and  _23
REMARK   10  A    between atoms: _22  and  _25
REMARK   11  A    between atoms: _25  and  _26
REMARK   12  A    between atoms: _29  and  _31
REMARK   13  A    between atoms: _31  and  _32
REMARK   14  A    between atoms: _31  and  _34
REMARK   15  A    between atoms: _34  and  _35
REMARK   16  A    between atoms: _35  and  _36
REMARK   17  A    between atoms: _36  and  _37
REMARK   18  A    between atoms: _46  and  _48
REMARK   19  A    between atoms: _48  and  _49
REMARK   20  A    between atoms: _48  and  _51
REMARK   21  A    between atoms: _51  and  _52
REMARK   22  A    between atoms: _57  and  _59
REMARK   23  A    between atoms: _59  and  _60
REMARK   24  A    between atoms: _59  and  _62
REMARK   25  A    between atoms: _62  and  _63
REMARK   26  A    between atoms: _66  and  _68
REMARK   27  A    between atoms: _68  and  _69
REMARK   28  A    between atoms: _68  and  _71
REMARK   29  A    between atoms: _71  and  _72
REMARK   30  A    between atoms: _72  and  _107
REMARK   31  A    between atoms: _73  and  _75
REMARK   32  A    between atoms: _75  and  _76
REMARK   33  A    between atoms: _78  and  _80
REMARK   34  A    between atoms: _80  and  _81
REMARK   35  A    between atoms: _84  and  _86
REMARK   36  A    between atoms: _86  and  _87
REMARK   37  A    between atoms: _90  and  _92
REMARK   38  A    between atoms: _92  and  _93
REMARK   39  A    between atoms: _92  and  _95
REMARK   40  A    between atoms: _95  and  _96
REMARK   41  A    between atoms: _101  and  _103
REMARK   42  A    between atoms: _103  and  _104
REMARK   43  A    between atoms: _103  and  _106
REMARK   44  A    between atoms: _106  and  _107
REMARK   45  A    between atoms: _108  and  _110
REMARK   46  A    between atoms: _110  and  _111
REMARK   47  A    between atoms: _110  and  _113
REMARK   48  A    between atoms: _113  and  _114
REMARK   49  A    between atoms: _120  and  _122
REMARK   50  A    between atoms: _122  and  _123
REMARK   51  A    between atoms: _122  and  _125
REMARK   52  A    between atoms: _125  and  _126
REMARK   53  A    between atoms: _131  and  _132
REMARK   54  A    between atoms: _134  and  _136
REMARK   55  A    between atoms: _136  and  _137
REMARK   56  A    between atoms: _136  and  _139
REMARK   57  A    between atoms: _142  and  _144
REMARK   58  A    between atoms: _144  and  _145
REMARK   59  A    between atoms: _148  and  _150
REMARK   60  A    between atoms: _150  and  _151
REMARK   61  A    between atoms: _150  and  _153
REMARK   62  A    between atoms: _153  and  _154
REMARK   63  A    between atoms: _157  and  _159
REMARK   64  A    between atoms: _159  and  _160
REMARK   65  A    between atoms: _159  and  _162
REMARK   66  A    between atoms: _165  and  _167
REMARK   67  A    between atoms: _167  and  _168
REMARK   68  A    between atoms: _167  and  _170
REMARK   69  A    between atoms: _170  and  _171
REMARK   70  A    between atoms: _181  and  _183
REMARK   71  A    between atoms: _183  and  _184
REMARK   72  A    between atoms: _186  and  _188
REMARK   73  A    between atoms: _188  and  _189
REMARK   74  A    between atoms: _188  and  _191
REMARK   75  A    between atoms: _191  and  _192
REMARK   76  A    between atoms: _197  and  _198
REMARK   77  A    between atoms: _200  and  _202
REMARK   78  A    between atoms: _202  and  _203
REMARK   79  A    between atoms: _202  and  _205
REMARK   80  A    between atoms: _205  and  _206
REMARK   81  A    between atoms: _206  and  _207
REMARK   82  A    between atoms: _207  and  _208
REMARK   83  A    between atoms: _208  and  _209
REMARK   84  A    between atoms: _213  and  _215
REMARK   85  A    between atoms: _215  and  _216
REMARK   86  A    between atoms: _215  and  _218
REMARK   87  A    between atoms: _218  and  _219
REMARK   88  A    between atoms: _222  and  _224
REMARK   89  A    between atoms: _224  and  _225
REMARK   90  A    between atoms: _224  and  _227
REMARK   91  A    between atoms: _227  and  _228
REMARK   92  A    between atoms: _231  and  _233
REMARK   93  A    between atoms: _233  and  _234
REMARK   94  A    between atoms: _233  and  _236
REMARK   95  A    between atoms: _236  and  _237
REMARK   96  A    between atoms: _237  and  _238
REMARK   97  A    between atoms: _238  and  _239
REMARK   98  A    between atoms: _239  and  _240
REMARK   99  A    between atoms: _244  and  _246
REMARK  100  A    between atoms: _246  and  _247
REMARK  101  A    between atoms: _246  and  _249
REMARK  102  A    between atoms: _249  and  _250
REMARK  103  A    between atoms: _253  and  _255
REMARK  104  A    between atoms: _255  and  _256
REMARK  105  A    between atoms: _255  and  _258
REMARK  106  A    between atoms: _258  and  _259
REMARK  107  A    between atoms: _264  and  _265
REMARK  108  A    between atoms: _267  and  _269
REMARK  109  A    between atoms: _269  and  _270
REMARK  110  A    between atoms: _269  and  _272
REMARK  111  A    between atoms: _272  and  _273
REMARK  112  A    between atoms: _276  and  _278
REMARK  113  A    between atoms: _278  and  _279
REMARK  114  A    between atoms: _278  and  _281
REMARK  115  A    between atoms: _283  and  _285
REMARK  116  A    between atoms: _285  and  _286
REMARK  117  A    between atoms: _289  and  _291
REMARK  118  A    between atoms: _291  and  _292
REMARK  119  A    between atoms: _291  and  _294
REMARK  120  A    between atoms: _294  and  _295
REMARK  121  A    between atoms: _295  and  _296
REMARK  122  A    between atoms: _296  and  _297
REMARK  123  A    between atoms: _297  and  _298
REMARK  124  A    between atoms: _302  and  _304
REMARK  125  A    between atoms: _304  and  _305
REMARK  126  A    between atoms: _304  and  _307
REMARK  127  A    between atoms: _307  and  _308
REMARK  128  A    between atoms: _311  and  _313
REMARK  129  A    between atoms: _313  and  _314
REMARK  130  A    between atoms: _317  and  _319
REMARK  131  A    between atoms: _319  and  _320
REMARK  132  A    between atoms: _319  and  _322
REMARK  133  A    between atoms: _322  and  _323
REMARK  134  A    between atoms: _323  and  _437
REMARK  135  A    between atoms: _324  and  _326
REMARK  136  A    between atoms: _326  and  _327
REMARK  137  A    between atoms: _326  and  _329
REMARK  138  A    between atoms: _329  and  _330
REMARK  139  A    between atoms: _330  and  _331
REMARK  140  A    between atoms: _331  and  _332
REMARK  141  A    between atoms: _332  and  _333
REMARK  142  A    between atoms: _337  and  _339
REMARK  143  A    between atoms: _339  and  _340
REMARK  144  A    between atoms: _342  and  _344
REMARK  145  A    between atoms: _344  and  _345
REMARK  146  A    between atoms: _344  and  _347
REMARK  147  A    between atoms: _347  and  _348
REMARK  148  A    between atoms: _351  and  _353
REMARK  149  A    between atoms: _353  and  _354
REMARK  150  A    between atoms: _353  and  _356
REMARK  151  A    between atoms: _356  and  _357
REMARK  152  A    between atoms: _359  and  _361
REMARK  153  A    between atoms: _361  and  _362
REMARK  154  A    between atoms: _364  and  _366
REMARK  155  A    between atoms: _366  and  _367
REMARK  156  A    between atoms: _369  and  _371
REMARK  157  A    between atoms: _371  and  _372
REMARK  158  A    between atoms: _371  and  _374
REMARK  159  A    between atoms: _374  and  _375
REMARK  160  A    between atoms: _378  and  _380
REMARK  161  A    between atoms: _380  and  _381
REMARK  162  A    between atoms: _380  and  _383
REMARK  163  A    between atoms: _383  and  _384
REMARK  164  A    between atoms: _387  and  _389
REMARK  165  A    between atoms: _389  and  _390
REMARK  166  A    between atoms: _389  and  _392
REMARK  167  A    between atoms: _392  and  _393
REMARK  168  A    between atoms: _395  and  _397
REMARK  169  A    between atoms: _397  and  _398
REMARK  170  A    between atoms: _397  and  _400
REMARK  171  A    between atoms: _400  and  _401
REMARK  172  A    between atoms: _411  and  _413
REMARK  173  A    between atoms: _413  and  _414
REMARK  174  A    between atoms: _416  and  _418
REMARK  175  A    between atoms: _418  and  _419
REMARK  176  A    between atoms: _418  and  _421
REMARK  177  A    between atoms: _421  and  _422
REMARK  178  A    between atoms: _422  and  _423
REMARK  179  A    between atoms: _426  and  _428
REMARK  180  A    between atoms: _428  and  _429
REMARK  181  A    between atoms: _431  and  _433
REMARK  182  A    between atoms: _433  and  _434
REMARK  183  A    between atoms: _433  and  _436
REMARK  184  A    between atoms: _436  and  _437
REMARK  185  A    between atoms: _438  and  _440
REMARK  186  A    between atoms: _440  and  _441
REMARK  187  A    between atoms: _444  and  _446
REMARK  188  A    between atoms: _446  and  _447
REMARK  189  A    between atoms: _446  and  _449
REMARK  190  A    between atoms: _449  and  _450
REMARK  191  A    between atoms: _450  and  _451
REMARK  192  A    between atoms: _456  and  _458
REMARK  193  A    between atoms: _458  and  _459
REMARK  194  A    between atoms: _458  and  _461
REMARK  195  A    between atoms: _461  and  _462
REMARK  196  A    between atoms: _462  and  _463
REMARK  197  A    between atoms: _463  and  _464
REMARK  198  A    between atoms: _474  and  _475
REMARK  199  A    between atoms: _480  and  _482
REMARK  200  A    between atoms: _482  and  _483
REMARK  201  A    between atoms: _485  and  _487
REMARK  202  A    between atoms: _487  and  _488
REMARK  203  A    between atoms: _487  and  _490
REMARK  204  A    between atoms: _493  and  _495
REMARK  205  A    between atoms: _495  and  _496
REMARK  206  A    between atoms: _495  and  _498
REMARK  207  A    between atoms: _498  and  _499
REMARK  208  A    between atoms: _504  and  _505
REMARK  209  A    between atoms: _507  and  _509
REMARK  210  A    between atoms: _509  and  _510
REMARK  211  A    between atoms: _509  and  _512
REMARK  212  A    between atoms: _512  and  _513
REMARK                            x       y       z     vdW  Elec       q    Type
REMARK                         _______ _______ _______ _____ _____    ______ ____
ROOT
ATOM      1  O   HOH     1      40.617 -21.349  32.256  0.00  0.00    +0.000 OA
ENDROOT
TORSDOF 0
REMARK  Name = ../refined-set-2016/5e2o/5e2o_pocket.pdb
REMARK  212 active torsions:
REMARK  status: ('A' for Active; 'I' for Inactive)
REMARK    1  A    between atoms: _1  and  _5
REMARK    2  A    between atoms: _5  and  _6
REMARK    3  A    between atoms: _5  and  _8
REMARK    4  A    between atoms: _8  and  _9
REMARK    5  A    between atoms: _12  and  _14
REMARK    6  A    between atoms: _14  and  _15
REMARK    7  A    between atoms: _14  and  _17
REMARK    8  A    between atoms: _20  and  _22
REMARK    9  A    between atoms: _22  and  _23
REMARK   10  A    between atoms: _22  and  _25
REMARK   11  A    between atoms: _25  and  _26
REMARK   12  A    between atoms: _29  and  _31
REMARK   13  A    between atoms: _31  and  _32
REMARK   14  A    between atoms: _31  and  _34
REMARK   15  A    between atoms: _34  and  _35
REMARK   16  A    between atoms: _35  and  _36
REMARK   17  A    between atoms: _36  and  _37
REMARK   18  A    between atoms: _46  and  _48
REMARK   19  A    between atoms: _48  and  _49
REMARK   20  A    between atoms: _48  and  _51
REMARK   21  A    between atoms: _51  and  _52
REMARK   22  A    between atoms: _57  and  _59
REMARK   23  A    between atoms: _59  and  _60
REMARK   24  A    between atoms: _59  and  _62
REMARK   25  A    between atoms: _62  and  _63
REMARK   26  A    between atoms: _66  and  _68
REMARK   27  A    between atoms: _68  and  _69
REMARK   28  A    between atoms: _68  and  _71
REMARK   29  A    between atoms: _71  and  _72
REMARK   30  A    between atoms: _72  and  _107
REMARK   31  A    between atoms: _73  and  _75
REMARK   32  A    between atoms: _75  and  _76
REMARK   33  A    between atoms: _78  and  _80
REMARK   34  A    between atoms: _80  and  _81
REMARK   35  A    between atoms: _84  and  _86
REMARK   36  A    between atoms: _86  and  _87
REMARK   37  A    between atoms: _90  and  _92
REMARK   38  A    between atoms: _92  and  _93
REMARK   39  A    between atoms: _92  and  _95
REMARK   40  A    between atoms: _95  and  _96
REMARK   41  A    between atoms: _101  and  _103
REMARK   42  A    between atoms: _103  and  _104
REMARK   43  A    between atoms: _103  and  _106
REMARK   44  A    between atoms: _106  and  _107
REMARK   45  A    between atoms: _108  and  _110
REMARK   46  A    between atoms: _110  and  _111
REMARK   47  A    between atoms: _110  and  _113
REMARK   48  A    between atoms: _113  and  _114
REMARK   49  A    between atoms: _120  and  _122
REMARK   50  A    between atoms: _122  and  _123
REMARK   51  A    between atoms: _122  and  _125
REMARK   52  A    between atoms: _125  and  _126
REMARK   53  A    between atoms: _131  and  _132
REMARK   54  A    between atoms: _134  and  _136
REMARK   55  A    between atoms: _136  and  _137
REMARK   56  A    between atoms: _136  and  _139
REMARK   57  A    between atoms: _142  and  _144
REMARK   58  A    between atoms: _144  and  _145
REMARK   59  A    between atoms: _148  and  _150
REMARK   60  A    between atoms: _150  and  _151
REMARK   61  A    between atoms: _150  and  _153
REMARK   62  A    between atoms: _153  and  _154
REMARK   63  A    between atoms: _157  and  _159
REMARK   64  A    between atoms: _159  and  _160
REMARK   65  A    between atoms: _159  and  _162
REMARK   66  A    between atoms: _165  and  _167
REMARK   67  A    between atoms: _167  and  _168
REMARK   68  A    between atoms: _167  and  _170
REMARK   69  A    between atoms: _170  and  _171
REMARK   70  A    between atoms: _181  and  _183
REMARK   71  A    between atoms: _183  and  _184
REMARK   72  A    between atoms: _186  and  _188
REMARK   73  A    between atoms: _188  and  _189
REMARK   74  A    between atoms: _188  and  _191
REMARK   75  A    between atoms: _191  and  _192
REMARK   76  A    between atoms: _197  and  _198
REMARK   77  A    between atoms: _200  and  _202
REMARK   78  A    between atoms: _202  and  _203
REMARK   79  A    between atoms: _202  and  _205
REMARK   80  A    between atoms: _205  and  _206
REMARK   81  A    between atoms: _206  and  _207
REMARK   82  A    between atoms: _207  and  _208
REMARK   83  A    between atoms: _208  and  _209
REMARK   84  A    between atoms: _213  and  _215
REMARK   85  A    between atoms: _215  and  _216
REMARK   86  A    between atoms: _215  and  _218
REMARK   87  A    between atoms: _218  and  _219
REMARK   88  A    between atoms: _222  and  _224
REMARK   89  A    between atoms: _224  and  _225
REMARK   90  A    between atoms: _224  and  _227
REMARK   91  A    between atoms: _227  and  _228
REMARK   92  A    between atoms: _231  and  _233
REMARK   93  A    between atoms: _233  and  _234
REMARK   94  A    between atoms: _233  and  _236
REMARK   95  A    between atoms: _236  and  _237
REMARK   96  A    between atoms: _237  and  _238
REMARK   97  A    between atoms: _238  and  _239
REMARK   98  A    between atoms: _239  and  _240
REMARK   99  A    between atoms: _244  and  _246
REMARK  100  A    between atoms: _246  and  _247
REMARK  101  A    between atoms: _246  and  _249
REMARK  102  A    between atoms: _249  and  _250
REMARK  103  A    between atoms: _253  and  _255
REMARK  104  A    between atoms: _255  and  _256
REMARK  105  A    between atoms: _255  and  _258
REMARK  106  A    between atoms: _258  and  _259
REMARK  107  A    between atoms: _264  and  _265
REMARK  108  A    between atoms: _267  and  _269
REMARK  109  A    between atoms: _269  and  _270
REMARK  110  A    between atoms: _269  and  _272
REMARK  111  A    between atoms: _272  and  _273
REMARK  112  A    between atoms: _276  and  _278
REMARK  113  A    between atoms: _278  and  _279
REMARK  114  A    between atoms: _278  and  _281
REMARK  115  A    between atoms: _283  and  _285
REMARK  116  A    between atoms: _285  and  _286
REMARK  117  A    between atoms: _289  and  _291
REMARK  118  A    between atoms: _291  and  _292
REMARK  119  A    between atoms: _291  and  _294
REMARK  120  A    between atoms: _294  and  _295
REMARK  121  A    between atoms: _295  and  _296
REMARK  122  A    between atoms: _296  and  _297
REMARK  123  A    between atoms: _297  and  _298
REMARK  124  A    between atoms: _302  and  _304
REMARK  125  A    between atoms: _304  and  _305
REMARK  126  A    between atoms: _304  and  _307
REMARK  127  A    between atoms: _307  and  _308
REMARK  128  A    between atoms: _311  and  _313
REMARK  129  A    between atoms: _313  and  _314
REMARK  130  A    between atoms: _317  and  _319
REMARK  131  A    between atoms: _319  and  _320
REMARK  132  A    between atoms: _319  and  _322
REMARK  133  A    between atoms: _322  and  _323
REMARK  134  A    between atoms: _323  and  _437
REMARK  135  A    between atoms: _324  and  _326
REMARK  136  A    between atoms: _326  and  _327
REMARK  137  A    between atoms: _326  and  _329
REMARK  138  A    between atoms: _329  and  _330
REMARK  139  A    between atoms: _330  and  _331
REMARK  140  A    between atoms: _331  and  _332
REMARK  141  A    between atoms: _332  and  _333
REMARK  142  A    between atoms: _337  and  _339
REMARK  143  A    between atoms: _339  and  _340
REMARK  144  A    between atoms: _342  and  _344
REMARK  145  A    between atoms: _344  and  _345
REMARK  146  A    between atoms: _344  and  _347
REMARK  147  A    between atoms: _347  and  _348
REMARK  148  A    between atoms: _351  and  _353
REMARK  149  A    between atoms: _353  and  _354
REMARK  150  A    between atoms: _353  and  _356
REMARK  151  A    between atoms: _356  and  _357
REMARK  152  A    between atoms: _359  and  _361
REMARK  153  A    between atoms: _361  and  _362
REMARK  154  A    between atoms: _364  and  _366
REMARK  155  A    between atoms: _366  and  _367
REMARK  156  A    between atoms: _369  and  _371
REMARK  157  A    between atoms: _371  and  _372
REMARK  158  A    between atoms: _371  and  _374
REMARK  159  A    between atoms: _374  and  _375
REMARK  160  A    between atoms: _378  and  _380
REMARK  161  A    between atoms: _380  and  _381
REMARK  162  A    between atoms: _380  and  _383
REMARK  163  A    between atoms: _383  and  _384
REMARK  164  A    between atoms: _387  and  _389
REMARK  165  A    between atoms: _389  and  _390
REMARK  166  A    between atoms: _389  and  _392
REMARK  167  A    between atoms: _392  and  _393
REMARK  168  A    between atoms: _395  and  _397
REMARK  169  A    between atoms: _397  and  _398
REMARK  170  A    between atoms: _397  and  _400
REMARK  171  A    between atoms: _400  and  _401
REMARK  172  A    between atoms: _411  and  _413
REMARK  173  A    between atoms: _413  and  _414
REMARK  174  A    between atoms: _416  and  _418
REMARK  175  A    between atoms: _418  and  _419
REMARK  176  A    between atoms: _418  and  _421
REMARK  177  A    between atoms: _421  and  _422
REMARK  178  A    between atoms: _422  and  _423
REMARK  179  A    between atoms: _426  and  _428
REMARK  180  A    between atoms: _428  and  _429
REMARK  181  A    between atoms: _431  and  _433
REMARK  182  A    between atoms: _433  and  _434
REMARK  183  A    between atoms: _433  and  _436
REMARK  184  A    between atoms: _436  and  _437
REMARK  185  A    between atoms: _438  and  _440
REMARK  186  A    between atoms: _440  and  _441
REMARK  187  A    between atoms: _444  and  _446
REMARK  188  A    between atoms: _446  and  _447
REMARK  189  A    between atoms: _446  and  _449
REMARK  190  A    between atoms: _449  and  _450
REMARK  191  A    between atoms: _450  and  _451
REMARK  192  A    between atoms: _456  and  _458
REMARK  193  A    between atoms: _458  and  _459
REMARK  194  A    between atoms: _458  and  _461
REMARK  195  A    between atoms: _461  and  _462
REMARK  196  A    between atoms: _462  and  _463
REMARK  197  A    between atoms: _463  and  _464
REMARK  198  A    between atoms: _474  and  _475
REMARK  199  A    between atoms: _480  and  _482
REMARK  200  A    between atoms: _482  and  _483
REMARK  201  A    between atoms: _485  and  _487
REMARK  202  A    between atoms: _487  and  _488
REMARK  203  A    between atoms: _487  and  _490
REMARK  204  A    between atoms: _493  and  _495
REMARK  205  A    between atoms: _495  and  _496
REMARK  206  A    between atoms: _495  and  _498
REMARK  207  A    between atoms: _498  and  _499
REMARK  208  A    between atoms: _504  and  _505
REMARK  209  A    between atoms: _507  and  _509
REMARK  210  A    between atoms: _509  and  _510
REMARK  211  A    between atoms: _509  and  _512
REMARK  212  A    between atoms: _512  and  _513
REMARK                            x       y       z     vdW  Elec       q    Type
REMARK                         _______ _______ _______ _____ _____    ______ ____
ROOT
ATOM      1  O   HOH     1      49.637 -22.432  37.249  0.00  0.00    +0.000 OA
ENDROOT
TORSDOF 0
REMARK  Name = ../refined-set-2016/5e2o/5e2o_pocket.pdb
REMARK  212 active torsions:
REMARK  status: ('A' for Active; 'I' for Inactive)
REMARK    1  A    between atoms: _1  and  _5
REMARK    2  A    between atoms: _5  and  _6
REMARK    3  A    between atoms: _5  and  _8
REMARK    4  A    between atoms: _8  and  _9
REMARK    5  A    between atoms: _12  and  _14
REMARK    6  A    between atoms: _14  and  _15
REMARK    7  A    between atoms: _14  and  _17
REMARK    8  A    between atoms: _20  and  _22
REMARK    9  A    between atoms: _22  and  _23
REMARK   10  A    between atoms: _22  and  _25
REMARK   11  A    between atoms: _25  and  _26
REMARK   12  A    between atoms: _29  and  _31
REMARK   13  A    between atoms: _31  and  _32
REMARK   14  A    between atoms: _31  and  _34
REMARK   15  A    between atoms: _34  and  _35
REMARK   16  A    between atoms: _35  and  _36
REMARK   17  A    between atoms: _36  and  _37
REMARK   18  A    between atoms: _46  and  _48
REMARK   19  A    between atoms: _48  and  _49
REMARK   20  A    between atoms: _48  and  _51
REMARK   21  A    between atoms: _51  and  _52
REMARK   22  A    between atoms: _57  and  _59
REMARK   23  A    between atoms: _59  and  _60
REMARK   24  A    between atoms: _59  and  _62
REMARK   25  A    between atoms: _62  and  _63
REMARK   26  A    between atoms: _66  and  _68
REMARK   27  A    between atoms: _68  and  _69
REMARK   28  A    between atoms: _68  and  _71
REMARK   29  A    between atoms: _71  and  _72
REMARK   30  A    between atoms: _72  and  _107
REMARK   31  A    between atoms: _73  and  _75
REMARK   32  A    between atoms: _75  and  _76
REMARK   33  A    between atoms: _78  and  _80
REMARK   34  A    between atoms: _80  and  _81
REMARK   35  A    between atoms: _84  and  _86
REMARK   36  A    between atoms: _86  and  _87
REMARK   37  A    between atoms: _90  and  _92
REMARK   38  A    between atoms: _92  and  _93
REMARK   39  A    between atoms: _92  and  _95
REMARK   40  A    between atoms: _95  and  _96
REMARK   41  A    between atoms: _101  and  _103
REMARK   42  A    between atoms: _103  and  _104
REMARK   43  A    between atoms: _103  and  _106
REMARK   44  A    between atoms: _106  and  _107
REMARK   45  A    between atoms: _108  and  _110
REMARK   46  A    between atoms: _110  and  _111
REMARK   47  A    between atoms: _110  and  _113
REMARK   48  A    between atoms: _113  and  _114
REMARK   49  A    between atoms: _120  and  _122
REMARK   50  A    between atoms: _122  and  _123
REMARK   51  A    between atoms: _122  and  _125
REMARK   52  A    between atoms: _125  and  _126
REMARK   53  A    between atoms: _131  and  _132
REMARK   54  A    between atoms: _134  and  _136
REMARK   55  A    between atoms: _136  and  _137
REMARK   56  A    between atoms: _136  and  _139
REMARK   57  A    between atoms: _142  and  _144
REMARK   58  A    between atoms: _144  and  _145
REMARK   59  A    between atoms: _148  and  _150
REMARK   60  A    between atoms: _150  and  _151
REMARK   61  A    between atoms: _150  and  _153
REMARK   62  A    between atoms: _153  and  _154
REMARK   63  A    between atoms: _157  and  _159
REMARK   64  A    between atoms: _159  and  _160
REMARK   65  A    between atoms: _159  and  _162
REMARK   66  A    between atoms: _165  and  _167
REMARK   67  A    between atoms: _167  and  _168
REMARK   68  A    between atoms: _167  and  _170
REMARK   69  A    between atoms: _170  and  _171
REMARK   70  A    between atoms: _181  and  _183
REMARK   71  A    between atoms: _183  and  _184
REMARK   72  A    between atoms: _186  and  _188
REMARK   73  A    between atoms: _188  and  _189
REMARK   74  A    between atoms: _188  and  _191
REMARK   75  A    between atoms: _191  and  _192
REMARK   76  A    between atoms: _197  and  _198
REMARK   77  A    between atoms: _200  and  _202
REMARK   78  A    between atoms: _202  and  _203
REMARK   79  A    between atoms: _202  and  _205
REMARK   80  A    between atoms: _205  and  _206
REMARK   81  A    between atoms: _206  and  _207
REMARK   82  A    between atoms: _207  and  _208
REMARK   83  A    between atoms: _208  and  _209
REMARK   84  A    between atoms: _213  and  _215
REMARK   85  A    between atoms: _215  and  _216
REMARK   86  A    between atoms: _215  and  _218
REMARK   87  A    between atoms: _218  and  _219
REMARK   88  A    between atoms: _222  and  _224
REMARK   89  A    between atoms: _224  and  _225
REMARK   90  A    between atoms: _224  and  _227
REMARK   91  A    between atoms: _227  and  _228
REMARK   92  A    between atoms: _231  and  _233
REMARK   93  A    between atoms: _233  and  _234
REMARK   94  A    between atoms: _233  and  _236
REMARK   95  A    between atoms: _236  and  _237
REMARK   96  A    between atoms: _237  and  _238
REMARK   97  A    between atoms: _238  and  _239
REMARK   98  A    between atoms: _239  and  _240
REMARK   99  A    between atoms: _244  and  _246
REMARK  100  A    between atoms: _246  and  _247
REMARK  101  A    between atoms: _246  and  _249
REMARK  102  A    between atoms: _249  and  _250
REMARK  103  A    between atoms: _253  and  _255
REMARK  104  A    between atoms: _255  and  _256
REMARK  105  A    between atoms: _255  and  _258
REMARK  106  A    between atoms: _258  and  _259
REMARK  107  A    between atoms: _264  and  _265
REMARK  108  A    between atoms: _267  and  _269
REMARK  109  A    between atoms: _269  and  _270
REMARK  110  A    between atoms: _269  and  _272
REMARK  111  A    between atoms: _272  and  _273
REMARK  112  A    between atoms: _276  and  _278
REMARK  113  A    between atoms: _278  and  _279
REMARK  114  A    between atoms: _278  and  _281
REMARK  115  A    between atoms: _283  and  _285
REMARK  116  A    between atoms: _285  and  _286
REMARK  117  A    between atoms: _289  and  _291
REMARK  118  A    between atoms: _291  and  _292
REMARK  119  A    between atoms: _291  and  _294
REMARK  120  A    between atoms: _294  and  _295
REMARK  121  A    between atoms: _295  and  _296
REMARK  122  A    between atoms: _296  and  _297
REMARK  123  A    between atoms: _297  and  _298
REMARK  124  A    between atoms: _302  and  _304
REMARK  125  A    between atoms: _304  and  _305
REMARK  126  A    between atoms: _304  and  _307
REMARK  127  A    between atoms: _307  and  _308
REMARK  128  A    between atoms: _311  and  _313
REMARK  129  A    between atoms: _313  and  _314
REMARK  130  A    between atoms: _317  and  _319
REMARK  131  A    between atoms: _319  and  _320
REMARK  132  A    between atoms: _319  and  _322
REMARK  133  A    between atoms: _322  and  _323
REMARK  134  A    between atoms: _323  and  _437
REMARK  135  A    between atoms: _324  and  _326
REMARK  136  A    between atoms: _326  and  _327
REMARK  137  A    between atoms: _326  and  _329
REMARK  138  A    between atoms: _329  and  _330
REMARK  139  A    between atoms: _330  and  _331
REMARK  140  A    between atoms: _331  and  _332
REMARK  141  A    between atoms: _332  and  _333
REMARK  142  A    between atoms: _337  and  _339
REMARK  143  A    between atoms: _339  and  _340
REMARK  144  A    between atoms: _342  and  _344
REMARK  145  A    between atoms: _344  and  _345
REMARK  146  A    between atoms: _344  and  _347
REMARK  147  A    between atoms: _347  and  _348
REMARK  148  A    between atoms: _351  and  _353
REMARK  149  A    between atoms: _353  and  _354
REMARK  150  A    between atoms: _353  and  _356
REMARK  151  A    between atoms: _356  and  _357
REMARK  152  A    between atoms: _359  and  _361
REMARK  153  A    between atoms: _361  and  _362
REMARK  154  A    between atoms: _364  and  _366
REMARK  155  A    between atoms: _366  and  _367
REMARK  156  A    between atoms: _369  and  _371
REMARK  157  A    between atoms: _371  and  _372
REMARK  158  A    between atoms: _371  and  _374
REMARK  159  A    between atoms: _374  and  _375
REMARK  160  A    between atoms: _378  and  _380
REMARK  161  A    between atoms: _380  and  _381
REMARK  162  A    between atoms: _380  and  _383
REMARK  163  A    between atoms: _383  and  _384
REMARK  164  A    between atoms: _387  and  _389
REMARK  165  A    between atoms: _389  and  _390
REMARK  166  A    between atoms: _389  and  _392
REMARK  167  A    between atoms: _392  and  _393
REMARK  168  A    between atoms: _395  and  _397
REMARK  169  A    between atoms: _397  and  _398
REMARK  170  A    between atoms: _397  and  _400
REMARK  171  A    between atoms: _400  and  _401
REMARK  172  A    between atoms: _411  and  _413
REMARK  173  A    between atoms: _413  and  _414
REMARK  174  A    between atoms: _416  and  _418
REMARK  175  A    between atoms: _418  and  _419
REMARK  176  A    between atoms: _418  and  _421
REMARK  177  A    between atoms: _421  and  _422
REMARK  178  A    between atoms: _422  and  _423
REMARK  179  A    between atoms: _426  and  _428
REMARK  180  A    between atoms: _428  and  _429
REMARK  181  A    between atoms: _431  and  _433
REMARK  182  A    between atoms: _433  and  _434
REMARK  183  A    between atoms: _433  and  _436
REMARK  184  A    between atoms: _436  and  _437
REMARK  185  A    between atoms: _438  and  _440
REMARK  186  A    between atoms: _440  and  _441
REMARK  187  A    between atoms: _444  and  _446
REMARK  188  A    between atoms: _446  and  _447
REMARK  189  A    between atoms: _446  and  _449
REMARK  190  A    between atoms: _449  and  _450
REMARK  191  A    between atoms: _450  and  _451
REMARK  192  A    between atoms: _456  and  _458
REMARK  193  A    between atoms: _458  and  _459
REMARK  194  A    between atoms: _458  and  _461
REMARK  195  A    between atoms: _461  and  _462
REMARK  196  A    between atoms: _462  and  _463
REMARK  197  A    between atoms: _463  and  _464
REMARK  198  A    between atoms: _474  and  _475
REMARK  199  A    between atoms: _480  and  _482
REMARK  200  A    between atoms: _482  and  _483
REMARK  201  A    between atoms: _485  and  _487
REMARK  202  A    between atoms: _487  and  _488
REMARK  203  A    between atoms: _487  and  _490
REMARK  204  A    between atoms: _493  and  _495
REMARK  205  A    between atoms: _495  and  _496
REMARK  206  A    between atoms: _495  and  _498
REMARK  207  A    between atoms: _498  and  _499
REMARK  208  A    between atoms: _504  and  _505
REMARK  209  A    between atoms: _507  and  _509
REMARK  210  A    between atoms: _509  and  _510
REMARK  211  A    between atoms: _509  and  _512
REMARK  212  A    between atoms: _512  and  _513
REMARK                            x       y       z     vdW  Elec       q    Type
REMARK                         _______ _______ _______ _____ _____    ______ ____
ROOT
ATOM      1  O   HOH     1      44.890 -32.072  32.211  0.00  0.00    +0.000 OA
ENDROOT
TORSDOF 0
REMARK  Name = ../refined-set-2016/5e2o/5e2o_pocket.pdb
REMARK  212 active torsions:
REMARK  status: ('A' for Active; 'I' for Inactive)
REMARK    1  A    between atoms: _1  and  _5
REMARK    2  A    between atoms: _5  and  _6
REMARK    3  A    between atoms: _5  and  _8
REMARK    4  A    between atoms: _8  and  _9
REMARK    5  A    between atoms: _12  and  _14
REMARK    6  A    between atoms: _14  and  _15
REMARK    7  A    between atoms: _14  and  _17
REMARK    8  A    between atoms: _20  and  _22
REMARK    9  A    between atoms: _22  and  _23
REMARK   10  A    between atoms: _22  and  _25
REMARK   11  A    between atoms: _25  and  _26
REMARK   12  A    between atoms: _29  and  _31
REMARK   13  A    between atoms: _31  and  _32
REMARK   14  A    between atoms: _31  and  _34
REMARK   15  A    between atoms: _34  and  _35
REMARK   16  A    between atoms: _35  and  _36
REMARK   17  A    between atoms: _36  and  _37
REMARK   18  A    between atoms: _46  and  _48
REMARK   19  A    between atoms: _48  and  _49
REMARK   20  A    between atoms: _48  and  _51
REMARK   21  A    between atoms: _51  and  _52
REMARK   22  A    between atoms: _57  and  _59
REMARK   23  A    between atoms: _59  and  _60
REMARK   24  A    between atoms: _59  and  _62
REMARK   25  A    between atoms: _62  and  _63
REMARK   26  A    between atoms: _66  and  _68
REMARK   27  A    between atoms: _68  and  _69
REMARK   28  A    between atoms: _68  and  _71
REMARK   29  A    between atoms: _71  and  _72
REMARK   30  A    between atoms: _72  and  _107
REMARK   31  A    between atoms: _73  and  _75
REMARK   32  A    between atoms: _75  and  _76
REMARK   33  A    between atoms: _78  and  _80
REMARK   34  A    between atoms: _80  and  _81
REMARK   35  A    between atoms: _84  and  _86
REMARK   36  A    between atoms: _86  and  _87
REMARK   37  A    between atoms: _90  and  _92
REMARK   38  A    between atoms: _92  and  _93
REMARK   39  A    between atoms: _92  and  _95
REMARK   40  A    between atoms: _95  and  _96
REMARK   41  A    between atoms: _101  and  _103
REMARK   42  A    between atoms: _103  and  _104
REMARK   43  A    between atoms: _103  and  _106
REMARK   44  A    between atoms: _106  and  _107
REMARK   45  A    between atoms: _108  and  _110
REMARK   46  A    between atoms: _110  and  _111
REMARK   47  A    between atoms: _110  and  _113
REMARK   48  A    between atoms: _113  and  _114
REMARK   49  A    between atoms: _120  and  _122
REMARK   50  A    between atoms: _122  and  _123
REMARK   51  A    between atoms: _122  and  _125
REMARK   52  A    between atoms: _125  and  _126
REMARK   53  A    between atoms: _131  and  _132
REMARK   54  A    between atoms: _134  and  _136
REMARK   55  A    between atoms: _136  and  _137
REMARK   56  A    between atoms: _136  and  _139
REMARK   57  A    between atoms: _142  and  _144
REMARK   58  A    between atoms: _144  and  _145
REMARK   59  A    between atoms: _148  and  _150
REMARK   60  A    between atoms: _150  and  _151
REMARK   61  A    between atoms: _150  and  _153
REMARK   62  A    between atoms: _153  and  _154
REMARK   63  A    between atoms: _157  and  _159
REMARK   64  A    between atoms: _159  and  _160
REMARK   65  A    between atoms: _159  and  _162
REMARK   66  A    between atoms: _165  and  _167
REMARK   67  A    between atoms: _167  and  _168
REMARK   68  A    between atoms: _167  and  _170
REMARK   69  A    between atoms: _170  and  _171
REMARK   70  A    between atoms: _181  and  _183
REMARK   71  A    between atoms: _183  and  _184
REMARK   72  A    between atoms: _186  and  _188
REMARK   73  A    between atoms: _188  and  _189
REMARK   74  A    between atoms: _188  and  _191
REMARK   75  A    between atoms: _191  and  _192
REMARK   76  A    between atoms: _197  and  _198
REMARK   77  A    between atoms: _200  and  _202
REMARK   78  A    between atoms: _202  and  _203
REMARK   79  A    between atoms: _202  and  _205
REMARK   80  A    between atoms: _205  and  _206
REMARK   81  A    between atoms: _206  and  _207
REMARK   82  A    between atoms: _207  and  _208
REMARK   83  A    between atoms: _208  and  _209
REMARK   84  A    between atoms: _213  and  _215
REMARK   85  A    between atoms: _215  and  _216
REMARK   86  A    between atoms: _215  and  _218
REMARK   87  A    between atoms: _218  and  _219
REMARK   88  A    between atoms: _222  and  _224
REMARK   89  A    between atoms: _224  and  _225
REMARK   90  A    between atoms: _224  and  _227
REMARK   91  A    between atoms: _227  and  _228
REMARK   92  A    between atoms: _231  and  _233
REMARK   93  A    between atoms: _233  and  _234
REMARK   94  A    between atoms: _233  and  _236
REMARK   95  A    between atoms: _236  and  _237
REMARK   96  A    between atoms: _237  and  _238
REMARK   97  A    between atoms: _238  and  _239
REMARK   98  A    between atoms: _239  and  _240
REMARK   99  A    between atoms: _244  and  _246
REMARK  100  A    between atoms: _246  and  _247
REMARK  101  A    between atoms: _246  and  _249
REMARK  102  A    between atoms: _249  and  _250
REMARK  103  A    between atoms: _253  and  _255
REMARK  104  A    between atoms: _255  and  _256
REMARK  105  A    between atoms: _255  and  _258
REMARK  106  A    between atoms: _258  and  _259
REMARK  107  A    between atoms: _264  and  _265
REMARK  108  A    between atoms: _267  and  _269
REMARK  109  A    between atoms: _269  and  _270
REMARK  110  A    between atoms: _269  and  _272
REMARK  111  A    between atoms: _272  and  _273
REMARK  112  A    between atoms: _276  and  _278
REMARK  113  A    between atoms: _278  and  _279
REMARK  114  A    between atoms: _278  and  _281
REMARK  115  A    between atoms: _283  and  _285
REMARK  116  A    between atoms: _285  and  _286
REMARK  117  A    between atoms: _289  and  _291
REMARK  118  A    between atoms: _291  and  _292
REMARK  119  A    between atoms: _291  and  _294
REMARK  120  A    between atoms: _294  and  _295
REMARK  121  A    between atoms: _295  and  _296
REMARK  122  A    between atoms: _296  and  _297
REMARK  123  A    between atoms: _297  and  _298
REMARK  124  A    between atoms: _302  and  _304
REMARK  125  A    between atoms: _304  and  _305
REMARK  126  A    between atoms: _304  and  _307
REMARK  127  A    between atoms: _307  and  _308
REMARK  128  A    between atoms: _311  and  _313
REMARK  129  A    between atoms: _313  and  _314
REMARK  130  A    between atoms: _317  and  _319
REMARK  131  A    between atoms: _319  and  _320
REMARK  132  A    between atoms: _319  and  _322
REMARK  133  A    between atoms: _322  and  _323
REMARK  134  A    between atoms: _323  and  _437
REMARK  135  A    between atoms: _324  and  _326
REMARK  136  A    between atoms: _326  and  _327
REMARK  137  A    between atoms: _326  and  _329
REMARK  138  A    between atoms: _329  and  _330
REMARK  139  A    between atoms: _330  and  _331
REMARK  140  A    between atoms: _331  and  _332
REMARK  141  A    between atoms: _332  and  _333
REMARK  142  A    between atoms: _337  and  _339
REMARK  143  A    between atoms: _339  and  _340
REMARK  144  A    between atoms: _342  and  _344
REMARK  145  A    between atoms: _344  and  _345
REMARK  146  A    between atoms: _344  and  _347
REMARK  147  A    between atoms: _347  and  _348
REMARK  148  A    between atoms: _351  and  _353
REMARK  149  A    between atoms: _353  and  _354
REMARK  150  A    between atoms: _353  and  _356
REMARK  151  A    between atoms: _356  and  _357
REMARK  152  A    between atoms: _359  and  _361
REMARK  153  A    between atoms: _361  and  _362
REMARK  154  A    between atoms: _364  and  _366
REMARK  155  A    between atoms: _366  and  _367
REMARK  156  A    between atoms: _369  and  _371
REMARK  157  A    between atoms: _371  and  _372
REMARK  158  A    between atoms: _371  and  _374
REMARK  159  A    between atoms: _374  and  _375
REMARK  160  A    between atoms: _378  and  _380
REMARK  161  A    between atoms: _380  and  _381
REMARK  162  A    between atoms: _380  and  _383
REMARK  163  A    between atoms: _383  and  _384
REMARK  164  A    between atoms: _387  and  _389
REMARK  165  A    between atoms: _389  and  _390
REMARK  166  A    between atoms: _389  and  _392
REMARK  167  A    between atoms: _392  and  _393
REMARK  168  A    between atoms: _395  and  _397
REMARK  169  A    between atoms: _397  and  _398
REMARK  170  A    between atoms: _397  and  _400
REMARK  171  A    between atoms: _400  and  _401
REMARK  172  A    between atoms: _411  and  _413
REMARK  173  A    between atoms: _413  and  _414
REMARK  174  A    between atoms: _416  and  _418
REMARK  175  A    between atoms: _418  and  _419
REMARK  176  A    between atoms: _418  and  _421
REMARK  177  A    between atoms: _421  and  _422
REMARK  178  A    between atoms: _422  and  _423
REMARK  179  A    between atoms: _426  and  _428
REMARK  180  A    between atoms: _428  and  _429
REMARK  181  A    between atoms: _431  and  _433
REMARK  182  A    between atoms: _433  and  _434
REMARK  183  A    between atoms: _433  and  _436
REMARK  184  A    between atoms: _436  and  _437
REMARK  185  A    between atoms: _438  and  _440
REMARK  186  A    between atoms: _440  and  _441
REMARK  187  A    between atoms: _444  and  _446
REMARK  188  A    between atoms: _446  and  _447
REMARK  189  A    between atoms: _446  and  _449
REMARK  190  A    between atoms: _449  and  _450
REMARK  191  A    between atoms: _450  and  _451
REMARK  192  A    between atoms: _456  and  _458
REMARK  193  A    between atoms: _458  and  _459
REMARK  194  A    between atoms: _458  and  _461
REMARK  195  A    between atoms: _461  and  _462
REMARK  196  A    between atoms: _462  and  _463
REMARK  197  A    between atoms: _463  and  _464
REMARK  198  A    between atoms: _474  and  _475
REMARK  199  A    between atoms: _480  and  _482
REMARK  200  A    between atoms: _482  and  _483
REMARK  201  A    between atoms: _485  and  _487
REMARK  202  A    between atoms: _487  and  _488
REMARK  203  A    between atoms: _487  and  _490
REMARK  204  A    between atoms: _493  and  _495
REMARK  205  A    between atoms: _495  and  _496
REMARK  206  A    between atoms: _495  and  _498
REMARK  207  A    between atoms: _498  and  _499
REMARK  208  A    between atoms: _504  and  _505
REMARK  209  A    between atoms: _507  and  _509
REMARK  210  A    between atoms: _509  and  _510
REMARK  211  A    between atoms: _509  and  _512
REMARK  212  A    between atoms: _512  and  _513
REMARK                            x       y       z     vdW  Elec       q    Type
REMARK                         _______ _______ _______ _____ _____    ______ ____
ROOT
ATOM      1  O   HOH     1      40.751 -17.940  37.587  0.00  0.00    +0.000 OA
ENDROOT
TORSDOF 0
REMARK  Name = ../refined-set-2016/5e2o/5e2o_pocket.pdb
REMARK  212 active torsions:
REMARK  status: ('A' for Active; 'I' for Inactive)
REMARK    1  A    between atoms: _1  and  _5
REMARK    2  A    between atoms: _5  and  _6
REMARK    3  A    between atoms: _5  and  _8
REMARK    4  A    between atoms: _8  and  _9
REMARK    5  A    between atoms: _12  and  _14
REMARK    6  A    between atoms: _14  and  _15
REMARK    7  A    between atoms: _14  and  _17
REMARK    8  A    between atoms: _20  and  _22
REMARK    9  A    between atoms: _22  and  _23
REMARK   10  A    between atoms: _22  and  _25
REMARK   11  A    between atoms: _25  and  _26
REMARK   12  A    between atoms: _29  and  _31
REMARK   13  A    between atoms: _31  and  _32
REMARK   14  A    between atoms: _31  and  _34
REMARK   15  A    between atoms: _34  and  _35
REMARK   16  A    between atoms: _35  and  _36
REMARK   17  A    between atoms: _36  and  _37
REMARK   18  A    between atoms: _46  and  _48
REMARK   19  A    between atoms: _48  and  _49
REMARK   20  A    between atoms: _48  and  _51
REMARK   21  A    between atoms: _51  and  _52
REMARK   22  A    between atoms: _57  and  _59
REMARK   23  A    between atoms: _59  and  _60
REMARK   24  A    between atoms: _59  and  _62
REMARK   25  A    between atoms: _62  and  _63
REMARK   26  A    between atoms: _66  and  _68
REMARK   27  A    between atoms: _68  and  _69
REMARK   28  A    between atoms: _68  and  _71
REMARK   29  A    between atoms: _71  and  _72
REMARK   30  A    between atoms: _72  and  _107
REMARK   31  A    between atoms: _73  and  _75
REMARK   32  A    between atoms: _75  and  _76
REMARK   33  A    between atoms: _78  and  _80
REMARK   34  A    between atoms: _80  and  _81
REMARK   35  A    between atoms: _84  and  _86
REMARK   36  A    between atoms: _86  and  _87
REMARK   37  A    between atoms: _90  and  _92
REMARK   38  A    between atoms: _92  and  _93
REMARK   39  A    between atoms: _92  and  _95
REMARK   40  A    between atoms: _95  and  _96
REMARK   41  A    between atoms: _101  and  _103
REMARK   42  A    between atoms: _103  and  _104
REMARK   43  A    between atoms: _103  and  _106
REMARK   44  A    between atoms: _106  and  _107
REMARK   45  A    between atoms: _108  and  _110
REMARK   46  A    between atoms: _110  and  _111
REMARK   47  A    between atoms: _110  and  _113
REMARK   48  A    between atoms: _113  and  _114
REMARK   49  A    between atoms: _120  and  _122
REMARK   50  A    between atoms: _122  and  _123
REMARK   51  A    between atoms: _122  and  _125
REMARK   52  A    between atoms: _125  and  _126
REMARK   53  A    between atoms: _131  and  _132
REMARK   54  A    between atoms: _134  and  _136
REMARK   55  A    between atoms: _136  and  _137
REMARK   56  A    between atoms: _136  and  _139
REMARK   57  A    between atoms: _142  and  _144
REMARK   58  A    between atoms: _144  and  _145
REMARK   59  A    between atoms: _148  and  _150
REMARK   60  A    between atoms: _150  and  _151
REMARK   61  A    between atoms: _150  and  _153
REMARK   62  A    between atoms: _153  and  _154
REMARK   63  A    between atoms: _157  and  _159
REMARK   64  A    between atoms: _159  and  _160
REMARK   65  A    between atoms: _159  and  _162
REMARK   66  A    between atoms: _165  and  _167
REMARK   67  A    between atoms: _167  and  _168
REMARK   68  A    between atoms: _167  and  _170
REMARK   69  A    between atoms: _170  and  _171
REMARK   70  A    between atoms: _181  and  _183
REMARK   71  A    between atoms: _183  and  _184
REMARK   72  A    between atoms: _186  and  _188
REMARK   73  A    between atoms: _188  and  _189
REMARK   74  A    between atoms: _188  and  _191
REMARK   75  A    between atoms: _191  and  _192
REMARK   76  A    between atoms: _197  and  _198
REMARK   77  A    between atoms: _200  and  _202
REMARK   78  A    between atoms: _202  and  _203
REMARK   79  A    between atoms: _202  and  _205
REMARK   80  A    between atoms: _205  and  _206
REMARK   81  A    between atoms: _206  and  _207
REMARK   82  A    between atoms: _207  and  _208
REMARK   83  A    between atoms: _208  and  _209
REMARK   84  A    between atoms: _213  and  _215
REMARK   85  A    between atoms: _215  and  _216
REMARK   86  A    between atoms: _215  and  _218
REMARK   87  A    between atoms: _218  and  _219
REMARK   88  A    between atoms: _222  and  _224
REMARK   89  A    between atoms: _224  and  _225
REMARK   90  A    between atoms: _224  and  _227
REMARK   91  A    between atoms: _227  and  _228
REMARK   92  A    between atoms: _231  and  _233
REMARK   93  A    between atoms: _233  and  _234
REMARK   94  A    between atoms: _233  and  _236
REMARK   95  A    between atoms: _236  and  _237
REMARK   96  A    between atoms: _237  and  _238
REMARK   97  A    between atoms: _238  and  _239
REMARK   98  A    between atoms: _239  and  _240
REMARK   99  A    between atoms: _244  and  _246
REMARK  100  A    between atoms: _246  and  _247
REMARK  101  A    between atoms: _246  and  _249
REMARK  102  A    between atoms: _249  and  _250
REMARK  103  A    between atoms: _253  and  _255
REMARK  104  A    between atoms: _255  and  _256
REMARK  105  A    between atoms: _255  and  _258
REMARK  106  A    between atoms: _258  and  _259
REMARK  107  A    between atoms: _264  and  _265
REMARK  108  A    between atoms: _267  and  _269
REMARK  109  A    between atoms: _269  and  _270
REMARK  110  A    between atoms: _269  and  _272
REMARK  111  A    between atoms: _272  and  _273
REMARK  112  A    between atoms: _276  and  _278
REMARK  113  A    between atoms: _278  and  _279
REMARK  114  A    between atoms: _278  and  _281
REMARK  115  A    between atoms: _283  and  _285
REMARK  116  A    between atoms: _285  and  _286
REMARK  117  A    between atoms: _289  and  _291
REMARK  118  A    between atoms: _291  and  _292
REMARK  119  A    between atoms: _291  and  _294
REMARK  120  A    between atoms: _294  and  _295
REMARK  121  A    between atoms: _295  and  _296
REMARK  122  A    between atoms: _296  and  _297
REMARK  123  A    between atoms: _297  and  _298
REMARK  124  A    between atoms: _302  and  _304
REMARK  125  A    between atoms: _304  and  _305
REMARK  126  A    between atoms: _304  and  _307
REMARK  127  A    between atoms: _307  and  _308
REMARK  128  A    between atoms: _311  and  _313
REMARK  129  A    between atoms: _313  and  _314
REMARK  130  A    between atoms: _317  and  _319
REMARK  131  A    between atoms: _319  and  _320
REMARK  132  A    between atoms: _319  and  _322
REMARK  133  A    between atoms: _322  and  _323
REMARK  134  A    between atoms: _323  and  _437
REMARK  135  A    between atoms: _324  and  _326
REMARK  136  A    between atoms: _326  and  _327
REMARK  137  A    between atoms: _326  and  _329
REMARK  138  A    between atoms: _329  and  _330
REMARK  139  A    between atoms: _330  and  _331
REMARK  140  A    between atoms: _331  and  _332
REMARK  141  A    between atoms: _332  and  _333
REMARK  142  A    between atoms: _337  and  _339
REMARK  143  A    between atoms: _339  and  _340
REMARK  144  A    between atoms: _342  and  _344
REMARK  145  A    between atoms: _344  and  _345
REMARK  146  A    between atoms: _344  and  _347
REMARK  147  A    between atoms: _347  and  _348
REMARK  148  A    between atoms: _351  and  _353
REMARK  149  A    between atoms: _353  and  _354
REMARK  150  A    between atoms: _353  and  _356
REMARK  151  A    between atoms: _356  and  _357
REMARK  152  A    between atoms: _359  and  _361
REMARK  153  A    between atoms: _361  and  _362
REMARK  154  A    between atoms: _364  and  _366
REMARK  155  A    between atoms: _366  and  _367
REMARK  156  A    between atoms: _369  and  _371
REMARK  157  A    between atoms: _371  and  _372
REMARK  158  A    between atoms: _371  and  _374
REMARK  159  A    between atoms: _374  and  _375
REMARK  160  A    between atoms: _378  and  _380
REMARK  161  A    between atoms: _380  and  _381
REMARK  162  A    between atoms: _380  and  _383
REMARK  163  A    between atoms: _383  and  _384
REMARK  164  A    between atoms: _387  and  _389
REMARK  165  A    between atoms: _389  and  _390
REMARK  166  A    between atoms: _389  and  _392
REMARK  167  A    between atoms: _392  and  _393
REMARK  168  A    between atoms: _395  and  _397
REMARK  169  A    between atoms: _397  and  _398
REMARK  170  A    between atoms: _397  and  _400
REMARK  171  A    between atoms: _400  and  _401
REMARK  172  A    between atoms: _411  and  _413
REMARK  173  A    between atoms: _413  and  _414
REMARK  174  A    between atoms: _416  and  _418
REMARK  175  A    between atoms: _418  and  _419
REMARK  176  A    between atoms: _418  and  _421
REMARK  177  A    between atoms: _421  and  _422
REMARK  178  A    between atoms: _422  and  _423
REMARK  179  A    between atoms: _426  and  _428
REMARK  180  A    between atoms: _428  and  _429
REMARK  181  A    between atoms: _431  and  _433
REMARK  182  A    between atoms: _433  and  _434
REMARK  183  A    between atoms: _433  and  _436
REMARK  184  A    between atoms: _436  and  _437
REMARK  185  A    between atoms: _438  and  _440
REMARK  186  A    between atoms: _440  and  _441
REMARK  187  A    between atoms: _444  and  _446
REMARK  188  A    between atoms: _446  and  _447
REMARK  189  A    between atoms: _446  and  _449
REMARK  190  A    between atoms: _449  and  _450
REMARK  191  A    between atoms: _450  and  _451
REMARK  192  A    between atoms: _456  and  _458
REMARK  193  A    between atoms: _458  and  _459
REMARK  194  A    between atoms: _458  and  _461
REMARK  195  A    between atoms: _461  and  _462
REMARK  196  A    between atoms: _462  and  _463
REMARK  197  A    between atoms: _463  and  _464
REMARK  198  A    between atoms: _474  and  _475
REMARK  199  A    between atoms: _480  and  _482
REMARK  200  A    between atoms: _482  and  _483
REMARK  201  A    between atoms: _485  and  _487
REMARK  202  A    between atoms: _487  and  _488
REMARK  203  A    between atoms: _487  and  _490
REMARK  204  A    between atoms: _493  and  _495
REMARK  205  A    between atoms: _495  and  _496
REMARK  206  A    between atoms: _495  and  _498
REMARK  207  A    between atoms: _498  and  _499
REMARK  208  A    between atoms: _504  and  _505
REMARK  209  A    between atoms: _507  and  _509
REMARK  210  A    between atoms: _509  and  _510
REMARK  211  A    between atoms: _509  and  _512
REMARK  212  A    between atoms: _512  and  _513
REMARK                            x       y       z     vdW  Elec       q    Type
REMARK                         _______ _______ _______ _____ _____    ______ ____
ROOT
ATOM      1  O   HOH     1      41.582  -9.395  22.415  0.00  0.00    +0.000 OA
ENDROOT
TORSDOF 0
REMARK  Name = ../refined-set-2016/5e2o/5e2o_pocket.pdb
REMARK  212 active torsions:
REMARK  status: ('A' for Active; 'I' for Inactive)
REMARK    1  A    between atoms: _1  and  _5
REMARK    2  A    between atoms: _5  and  _6
REMARK    3  A    between atoms: _5  and  _8
REMARK    4  A    between atoms: _8  and  _9
REMARK    5  A    between atoms: _12  and  _14
REMARK    6  A    between atoms: _14  and  _15
REMARK    7  A    between atoms: _14  and  _17
REMARK    8  A    between atoms: _20  and  _22
REMARK    9  A    between atoms: _22  and  _23
REMARK   10  A    between atoms: _22  and  _25
REMARK   11  A    between atoms: _25  and  _26
REMARK   12  A    between atoms: _29  and  _31
REMARK   13  A    between atoms: _31  and  _32
REMARK   14  A    between atoms: _31  and  _34
REMARK   15  A    between atoms: _34  and  _35
REMARK   16  A    between atoms: _35  and  _36
REMARK   17  A    between atoms: _36  and  _37
REMARK   18  A    between atoms: _46  and  _48
REMARK   19  A    between atoms: _48  and  _49
REMARK   20  A    between atoms: _48  and  _51
REMARK   21  A    between atoms: _51  and  _52
REMARK   22  A    between atoms: _57  and  _59
REMARK   23  A    between atoms: _59  and  _60
REMARK   24  A    between atoms: _59  and  _62
REMARK   25  A    between atoms: _62  and  _63
REMARK   26  A    between atoms: _66  and  _68
REMARK   27  A    between atoms: _68  and  _69
REMARK   28  A    between atoms: _68  and  _71
REMARK   29  A    between atoms: _71  and  _72
REMARK   30  A    between atoms: _72  and  _107
REMARK   31  A    between atoms: _73  and  _75
REMARK   32  A    between atoms: _75  and  _76
REMARK   33  A    between atoms: _78  and  _80
REMARK   34  A    between atoms: _80  and  _81
REMARK   35  A    between atoms: _84  and  _86
REMARK   36  A    between atoms: _86  and  _87
REMARK   37  A    between atoms: _90  and  _92
REMARK   38  A    between atoms: _92  and  _93
REMARK   39  A    between atoms: _92  and  _95
REMARK   40  A    between atoms: _95  and  _96
REMARK   41  A    between atoms: _101  and  _103
REMARK   42  A    between atoms: _103  and  _104
REMARK   43  A    between atoms: _103  and  _106
REMARK   44  A    between atoms: _106  and  _107
REMARK   45  A    between atoms: _108  and  _110
REMARK   46  A    between atoms: _110  and  _111
REMARK   47  A    between atoms: _110  and  _113
REMARK   48  A    between atoms: _113  and  _114
REMARK   49  A    between atoms: _120  and  _122
REMARK   50  A    between atoms: _122  and  _123
REMARK   51  A    between atoms: _122  and  _125
REMARK   52  A    between atoms: _125  and  _126
REMARK   53  A    between atoms: _131  and  _132
REMARK   54  A    between atoms: _134  and  _136
REMARK   55  A    between atoms: _136  and  _137
REMARK   56  A    between atoms: _136  and  _139
REMARK   57  A    between atoms: _142  and  _144
REMARK   58  A    between atoms: _144  and  _145
REMARK   59  A    between atoms: _148  and  _150
REMARK   60  A    between atoms: _150  and  _151
REMARK   61  A    between atoms: _150  and  _153
REMARK   62  A    between atoms: _153  and  _154
REMARK   63  A    between atoms: _157  and  _159
REMARK   64  A    between atoms: _159  and  _160
REMARK   65  A    between atoms: _159  and  _162
REMARK   66  A    between atoms: _165  and  _167
REMARK   67  A    between atoms: _167  and  _168
REMARK   68  A    between atoms: _167  and  _170
REMARK   69  A    between atoms: _170  and  _171
REMARK   70  A    between atoms: _181  and  _183
REMARK   71  A    between atoms: _183  and  _184
REMARK   72  A    between atoms: _186  and  _188
REMARK   73  A    between atoms: _188  and  _189
REMARK   74  A    between atoms: _188  and  _191
REMARK   75  A    between atoms: _191  and  _192
REMARK   76  A    between atoms: _197  and  _198
REMARK   77  A    between atoms: _200  and  _202
REMARK   78  A    between atoms: _202  and  _203
REMARK   79  A    between atoms: _202  and  _205
REMARK   80  A    between atoms: _205  and  _206
REMARK   81  A    between atoms: _206  and  _207
REMARK   82  A    between atoms: _207  and  _208
REMARK   83  A    between atoms: _208  and  _209
REMARK   84  A    between atoms: _213  and  _215
REMARK   85  A    between atoms: _215  and  _216
REMARK   86  A    between atoms: _215  and  _218
REMARK   87  A    between atoms: _218  and  _219
REMARK   88  A    between atoms: _222  and  _224
REMARK   89  A    between atoms: _224  and  _225
REMARK   90  A    between atoms: _224  and  _227
REMARK   91  A    between atoms: _227  and  _228
REMARK   92  A    between atoms: _231  and  _233
REMARK   93  A    between atoms: _233  and  _234
REMARK   94  A    between atoms: _233  and  _236
REMARK   95  A    between atoms: _236  and  _237
REMARK   96  A    between atoms: _237  and  _238
REMARK   97  A    between atoms: _238  and  _239
REMARK   98  A    between atoms: _239  and  _240
REMARK   99  A    between atoms: _244  and  _246
REMARK  100  A    between atoms: _246  and  _247
REMARK  101  A    between atoms: _246  and  _249
REMARK  102  A    between atoms: _249  and  _250
REMARK  103  A    between atoms: _253  and  _255
REMARK  104  A    between atoms: _255  and  _256
REMARK  105  A    between atoms: _255  and  _258
REMARK  106  A    between atoms: _258  and  _259
REMARK  107  A    between atoms: _264  and  _265
REMARK  108  A    between atoms: _267  and  _269
REMARK  109  A    between atoms: _269  and  _270
REMARK  110  A    between atoms: _269  and  _272
REMARK  111  A    between atoms: _272  and  _273
REMARK  112  A    between atoms: _276  and  _278
REMARK  113  A    between atoms: _278  and  _279
REMARK  114  A    between atoms: _278  and  _281
REMARK  115  A    between atoms: _283  and  _285
REMARK  116  A    between atoms: _285  and  _286
REMARK  117  A    between atoms: _289  and  _291
REMARK  118  A    between atoms: _291  and  _292
REMARK  119  A    between atoms: _291  and  _294
REMARK  120  A    between atoms: _294  and  _295
REMARK  121  A    between atoms: _295  and  _296
REMARK  122  A    between atoms: _296  and  _297
REMARK  123  A    between atoms: _297  and  _298
REMARK  124  A    between atoms: _302  and  _304
REMARK  125  A    between atoms: _304  and  _305
REMARK  126  A    between atoms: _304  and  _307
REMARK  127  A    between atoms: _307  and  _308
REMARK  128  A    between atoms: _311  and  _313
REMARK  129  A    between atoms: _313  and  _314
REMARK  130  A    between atoms: _317  and  _319
REMARK  131  A    between atoms: _319  and  _320
REMARK  132  A    between atoms: _319  and  _322
REMARK  133  A    between atoms: _322  and  _323
REMARK  134  A    between atoms: _323  and  _437
REMARK  135  A    between atoms: _324  and  _326
REMARK  136  A    between atoms: _326  and  _327
REMARK  137  A    between atoms: _326  and  _329
REMARK  138  A    between atoms: _329  and  _330
REMARK  139  A    between atoms: _330  and  _331
REMARK  140  A    between atoms: _331  and  _332
REMARK  141  A    between atoms: _332  and  _333
REMARK  142  A    between atoms: _337  and  _339
REMARK  143  A    between atoms: _339  and  _340
REMARK  144  A    between atoms: _342  and  _344
REMARK  145  A    between atoms: _344  and  _345
REMARK  146  A    between atoms: _344  and  _347
REMARK  147  A    between atoms: _347  and  _348
REMARK  148  A    between atoms: _351  and  _353
REMARK  149  A    between atoms: _353  and  _354
REMARK  150  A    between atoms: _353  and  _356
REMARK  151  A    between atoms: _356  and  _357
REMARK  152  A    between atoms: _359  and  _361
REMARK  153  A    between atoms: _361  and  _362
REMARK  154  A    between atoms: _364  and  _366
REMARK  155  A    between atoms: _366  and  _367
REMARK  156  A    between atoms: _369  and  _371
REMARK  157  A    between atoms: _371  and  _372
REMARK  158  A    between atoms: _371  and  _374
REMARK  159  A    between atoms: _374  and  _375
REMARK  160  A    between atoms: _378  and  _380
REMARK  161  A    between atoms: _380  and  _381
REMARK  162  A    between atoms: _380  and  _383
REMARK  163  A    between atoms: _383  and  _384
REMARK  164  A    between atoms: _387  and  _389
REMARK  165  A    between atoms: _389  and  _390
REMARK  166  A    between atoms: _389  and  _392
REMARK  167  A    between atoms: _392  and  _393
REMARK  168  A    between atoms: _395  and  _397
REMARK  169  A    between atoms: _397  and  _398
REMARK  170  A    between atoms: _397  and  _400
REMARK  171  A    between atoms: _400  and  _401
REMARK  172  A    between atoms: _411  and  _413
REMARK  173  A    between atoms: _413  and  _414
REMARK  174  A    between atoms: _416  and  _418
REMARK  175  A    between atoms: _418  and  _419
REMARK  176  A    between atoms: _418  and  _421
REMARK  177  A    between atoms: _421  and  _422
REMARK  178  A    between atoms: _422  and  _423
REMARK  179  A    between atoms: _426  and  _428
REMARK  180  A    between atoms: _428  and  _429
REMARK  181  A    between atoms: _431  and  _433
REMARK  182  A    between atoms: _433  and  _434
REMARK  183  A    between atoms: _433  and  _436
REMARK  184  A    between atoms: _436  and  _437
REMARK  185  A    between atoms: _438  and  _440
REMARK  186  A    between atoms: _440  and  _441
REMARK  187  A    between atoms: _444  and  _446
REMARK  188  A    between atoms: _446  and  _447
REMARK  189  A    between atoms: _446  and  _449
REMARK  190  A    between atoms: _449  and  _450
REMARK  191  A    between atoms: _450  and  _451
REMARK  192  A    between atoms: _456  and  _458
REMARK  193  A    between atoms: _458  and  _459
REMARK  194  A    between atoms: _458  and  _461
REMARK  195  A    between atoms: _461  and  _462
REMARK  196  A    between atoms: _462  and  _463
REMARK  197  A    between atoms: _463  and  _464
REMARK  198  A    between atoms: _474  and  _475
REMARK  199  A    between atoms: _480  and  _482
REMARK  200  A    between atoms: _482  and  _483
REMARK  201  A    between atoms: _485  and  _487
REMARK  202  A    between atoms: _487  and  _488
REMARK  203  A    between atoms: _487  and  _490
REMARK  204  A    between atoms: _493  and  _495
REMARK  205  A    between atoms: _495  and  _496
REMARK  206  A    between atoms: _495  and  _498
REMARK  207  A    between atoms: _498  and  _499
REMARK  208  A    between atoms: _504  and  _505
REMARK  209  A    between atoms: _507  and  _509
REMARK  210  A    between atoms: _509  and  _510
REMARK  211  A    between atoms: _509  and  _512
REMARK  212  A    between atoms: _512  and  _513
REMARK                            x       y       z     vdW  Elec       q    Type
REMARK                         _______ _______ _______ _____ _____    ______ ____
ROOT
ATOM      1  O   HOH     1      50.894 -19.057  32.679  0.00  0.00    +0.000 OA
ENDROOT
TORSDOF 0
REMARK  Name = ../refined-set-2016/5e2o/5e2o_pocket.pdb
REMARK  212 active torsions:
REMARK  status: ('A' for Active; 'I' for Inactive)
REMARK    1  A    between atoms: _1  and  _5
REMARK    2  A    between atoms: _5  and  _6
REMARK    3  A    between atoms: _5  and  _8
REMARK    4  A    between atoms: _8  and  _9
REMARK    5  A    between atoms: _12  and  _14
REMARK    6  A    between atoms: _14  and  _15
REMARK    7  A    between atoms: _14  and  _17
REMARK    8  A    between atoms: _20  and  _22
REMARK    9  A    between atoms: _22  and  _23
REMARK   10  A    between atoms: _22  and  _25
REMARK   11  A    between atoms: _25  and  _26
REMARK   12  A    between atoms: _29  and  _31
REMARK   13  A    between atoms: _31  and  _32
REMARK   14  A    between atoms: _31  and  _34
REMARK   15  A    between atoms: _34  and  _35
REMARK   16  A    between atoms: _35  and  _36
REMARK   17  A    between atoms: _36  and  _37
REMARK   18  A    between atoms: _46  and  _48
REMARK   19  A    between atoms: _48  and  _49
REMARK   20  A    between atoms: _48  and  _51
REMARK   21  A    between atoms: _51  and  _52
REMARK   22  A    between atoms: _57  and  _59
REMARK   23  A    between atoms: _59  and  _60
REMARK   24  A    between atoms: _59  and  _62
REMARK   25  A    between atoms: _62  and  _63
REMARK   26  A    between atoms: _66  and  _68
REMARK   27  A    between atoms: _68  and  _69
REMARK   28  A    between atoms: _68  and  _71
REMARK   29  A    between atoms: _71  and  _72
REMARK   30  A    between atoms: _72  and  _107
REMARK   31  A    between atoms: _73  and  _75
REMARK   32  A    between atoms: _75  and  _76
REMARK   33  A    between atoms: _78  and  _80
REMARK   34  A    between atoms: _80  and  _81
REMARK   35  A    between atoms: _84  and  _86
REMARK   36  A    between atoms: _86  and  _87
REMARK   37  A    between atoms: _90  and  _92
REMARK   38  A    between atoms: _92  and  _93
REMARK   39  A    between atoms: _92  and  _95
REMARK   40  A    between atoms: _95  and  _96
REMARK   41  A    between atoms: _101  and  _103
REMARK   42  A    between atoms: _103  and  _104
REMARK   43  A    between atoms: _103  and  _106
REMARK   44  A    between atoms: _106  and  _107
REMARK   45  A    between atoms: _108  and  _110
REMARK   46  A    between atoms: _110  and  _111
REMARK   47  A    between atoms: _110  and  _113
REMARK   48  A    between atoms: _113  and  _114
REMARK   49  A    between atoms: _120  and  _122
REMARK   50  A    between atoms: _122  and  _123
REMARK   51  A    between atoms: _122  and  _125
REMARK   52  A    between atoms: _125  and  _126
REMARK   53  A    between atoms: _131  and  _132
REMARK   54  A    between atoms: _134  and  _136
REMARK   55  A    between atoms: _136  and  _137
REMARK   56  A    between atoms: _136  and  _139
REMARK   57  A    between atoms: _142  and  _144
REMARK   58  A    between atoms: _144  and  _145
REMARK   59  A    between atoms: _148  and  _150
REMARK   60  A    between atoms: _150  and  _151
REMARK   61  A    between atoms: _150  and  _153
REMARK   62  A    between atoms: _153  and  _154
REMARK   63  A    between atoms: _157  and  _159
REMARK   64  A    between atoms: _159  and  _160
REMARK   65  A    between atoms: _159  and  _162
REMARK   66  A    between atoms: _165  and  _167
REMARK   67  A    between atoms: _167  and  _168
REMARK   68  A    between atoms: _167  and  _170
REMARK   69  A    between atoms: _170  and  _171
REMARK   70  A    between atoms: _181  and  _183
REMARK   71  A    between atoms: _183  and  _184
REMARK   72  A    between atoms: _186  and  _188
REMARK   73  A    between atoms: _188  and  _189
REMARK   74  A    between atoms: _188  and  _191
REMARK   75  A    between atoms: _191  and  _192
REMARK   76  A    between atoms: _197  and  _198
REMARK   77  A    between atoms: _200  and  _202
REMARK   78  A    between atoms: _202  and  _203
REMARK   79  A    between atoms: _202  and  _205
REMARK   80  A    between atoms: _205  and  _206
REMARK   81  A    between atoms: _206  and  _207
REMARK   82  A    between atoms: _207  and  _208
REMARK   83  A    between atoms: _208  and  _209
REMARK   84  A    between atoms: _213  and  _215
REMARK   85  A    between atoms: _215  and  _216
REMARK   86  A    between atoms: _215  and  _218
REMARK   87  A    between atoms: _218  and  _219
REMARK   88  A    between atoms: _222  and  _224
REMARK   89  A    between atoms: _224  and  _225
REMARK   90  A    between atoms: _224  and  _227
REMARK   91  A    between atoms: _227  and  _228
REMARK   92  A    between atoms: _231  and  _233
REMARK   93  A    between atoms: _233  and  _234
REMARK   94  A    between atoms: _233  and  _236
REMARK   95  A    between atoms: _236  and  _237
REMARK   96  A    between atoms: _237  and  _238
REMARK   97  A    between atoms: _238  and  _239
REMARK   98  A    between atoms: _239  and  _240
REMARK   99  A    between atoms: _244  and  _246
REMARK  100  A    between atoms: _246  and  _247
REMARK  101  A    between atoms: _246  and  _249
REMARK  102  A    between atoms: _249  and  _250
REMARK  103  A    between atoms: _253  and  _255
REMARK  104  A    between atoms: _255  and  _256
REMARK  105  A    between atoms: _255  and  _258
REMARK  106  A    between atoms: _258  and  _259
REMARK  107  A    between atoms: _264  and  _265
REMARK  108  A    between atoms: _267  and  _269
REMARK  109  A    between atoms: _269  and  _270
REMARK  110  A    between atoms: _269  and  _272
REMARK  111  A    between atoms: _272  and  _273
REMARK  112  A    between atoms: _276  and  _278
REMARK  113  A    between atoms: _278  and  _279
REMARK  114  A    between atoms: _278  and  _281
REMARK  115  A    between atoms: _283  and  _285
REMARK  116  A    between atoms: _285  and  _286
REMARK  117  A    between atoms: _289  and  _291
REMARK  118  A    between atoms: _291  and  _292
REMARK  119  A    between atoms: _291  and  _294
REMARK  120  A    between atoms: _294  and  _295
REMARK  121  A    between atoms: _295  and  _296
REMARK  122  A    between atoms: _296  and  _297
REMARK  123  A    between atoms: _297  and  _298
REMARK  124  A    between atoms: _302  and  _304
REMARK  125  A    between atoms: _304  and  _305
REMARK  126  A    between atoms: _304  and  _307
REMARK  127  A    between atoms: _307  and  _308
REMARK  128  A    between atoms: _311  and  _313
REMARK  129  A    between atoms: _313  and  _314
REMARK  130  A    between atoms: _317  and  _319
REMARK  131  A    between atoms: _319  and  _320
REMARK  132  A    between atoms: _319  and  _322
REMARK  133  A    between atoms: _322  and  _323
REMARK  134  A    between atoms: _323  and  _437
REMARK  135  A    between atoms: _324  and  _326
REMARK  136  A    between atoms: _326  and  _327
REMARK  137  A    between atoms: _326  and  _329
REMARK  138  A    between atoms: _329  and  _330
REMARK  139  A    between atoms: _330  and  _331
REMARK  140  A    between atoms: _331  and  _332
REMARK  141  A    between atoms: _332  and  _333
REMARK  142  A    between atoms: _337  and  _339
REMARK  143  A    between atoms: _339  and  _340
REMARK  144  A    between atoms: _342  and  _344
REMARK  145  A    between atoms: _344  and  _345
REMARK  146  A    between atoms: _344  and  _347
REMARK  147  A    between atoms: _347  and  _348
REMARK  148  A    between atoms: _351  and  _353
REMARK  149  A    between atoms: _353  and  _354
REMARK  150  A    between atoms: _353  and  _356
REMARK  151  A    between atoms: _356  and  _357
REMARK  152  A    between atoms: _359  and  _361
REMARK  153  A    between atoms: _361  and  _362
REMARK  154  A    between atoms: _364  and  _366
REMARK  155  A    between atoms: _366  and  _367
REMARK  156  A    between atoms: _369  and  _371
REMARK  157  A    between atoms: _371  and  _372
REMARK  158  A    between atoms: _371  and  _374
REMARK  159  A    between atoms: _374  and  _375
REMARK  160  A    between atoms: _378  and  _380
REMARK  161  A    between atoms: _380  and  _381
REMARK  162  A    between atoms: _380  and  _383
REMARK  163  A    between atoms: _383  and  _384
REMARK  164  A    between atoms: _387  and  _389
REMARK  165  A    between atoms: _389  and  _390
REMARK  166  A    between atoms: _389  and  _392
REMARK  167  A    between atoms: _392  and  _393
REMARK  168  A    between atoms: _395  and  _397
REMARK  169  A    between atoms: _397  and  _398
REMARK  170  A    between atoms: _397  and  _400
REMARK  171  A    between atoms: _400  and  _401
REMARK  172  A    between atoms: _411  and  _413
REMARK  173  A    between atoms: _413  and  _414
REMARK  174  A    between atoms: _416  and  _418
REMARK  175  A    between atoms: _418  and  _419
REMARK  176  A    between atoms: _418  and  _421
REMARK  177  A    between atoms: _421  and  _422
REMARK  178  A    between atoms: _422  and  _423
REMARK  179  A    between atoms: _426  and  _428
REMARK  180  A    between atoms: _428  and  _429
REMARK  181  A    between atoms: _431  and  _433
REMARK  182  A    between atoms: _433  and  _434
REMARK  183  A    between atoms: _433  and  _436
REMARK  184  A    between atoms: _436  and  _437
REMARK  185  A    between atoms: _438  and  _440
REMARK  186  A    between atoms: _440  and  _441
REMARK  187  A    between atoms: _444  and  _446
REMARK  188  A    between atoms: _446  and  _447
REMARK  189  A    between atoms: _446  and  _449
REMARK  190  A    between atoms: _449  and  _450
REMARK  191  A    between atoms: _450  and  _451
REMARK  192  A    between atoms: _456  and  _458
REMARK  193  A    between atoms: _458  and  _459
REMARK  194  A    between atoms: _458  and  _461
REMARK  195  A    between atoms: _461  and  _462
REMARK  196  A    between atoms: _462  and  _463
REMARK  197  A    between atoms: _463  and  _464
REMARK  198  A    between atoms: _474  and  _475
REMARK  199  A    between atoms: _480  and  _482
REMARK  200  A    between atoms: _482  and  _483
REMARK  201  A    between atoms: _485  and  _487
REMARK  202  A    between atoms: _487  and  _488
REMARK  203  A    between atoms: _487  and  _490
REMARK  204  A    between atoms: _493  and  _495
REMARK  205  A    between atoms: _495  and  _496
REMARK  206  A    between atoms: _495  and  _498
REMARK  207  A    between atoms: _498  and  _499
REMARK  208  A    between atoms: _504  and  _505
REMARK  209  A    between atoms: _507  and  _509
REMARK  210  A    between atoms: _509  and  _510
REMARK  211  A    between atoms: _509  and  _512
REMARK  212  A    between atoms: _512  and  _513
REMARK                            x       y       z     vdW  Elec       q    Type
REMARK                         _______ _______ _______ _____ _____    ______ ____
ROOT
ATOM      1  O   HOH     1      38.551 -20.194  20.756  0.00  0.00    +0.000 OA
ENDROOT
TORSDOF 0
REMARK  Name = ../refined-set-2016/5e2o/5e2o_pocket.pdb
REMARK  212 active torsions:
REMARK  status: ('A' for Active; 'I' for Inactive)
REMARK    1  A    between atoms: _1  and  _5
REMARK    2  A    between atoms: _5  and  _6
REMARK    3  A    between atoms: _5  and  _8
REMARK    4  A    between atoms: _8  and  _9
REMARK    5  A    between atoms: _12  and  _14
REMARK    6  A    between atoms: _14  and  _15
REMARK    7  A    between atoms: _14  and  _17
REMARK    8  A    between atoms: _20  and  _22
REMARK    9  A    between atoms: _22  and  _23
REMARK   10  A    between atoms: _22  and  _25
REMARK   11  A    between atoms: _25  and  _26
REMARK   12  A    between atoms: _29  and  _31
REMARK   13  A    between atoms: _31  and  _32
REMARK   14  A    between atoms: _31  and  _34
REMARK   15  A    between atoms: _34  and  _35
REMARK   16  A    between atoms: _35  and  _36
REMARK   17  A    between atoms: _36  and  _37
REMARK   18  A    between atoms: _46  and  _48
REMARK   19  A    between atoms: _48  and  _49
REMARK   20  A    between atoms: _48  and  _51
REMARK   21  A    between atoms: _51  and  _52
REMARK   22  A    between atoms: _57  and  _59
REMARK   23  A    between atoms: _59  and  _60
REMARK   24  A    between atoms: _59  and  _62
REMARK   25  A    between atoms: _62  and  _63
REMARK   26  A    between atoms: _66  and  _68
REMARK   27  A    between atoms: _68  and  _69
REMARK   28  A    between atoms: _68  and  _71
REMARK   29  A    between atoms: _71  and  _72
REMARK   30  A    between atoms: _72  and  _107
REMARK   31  A    between atoms: _73  and  _75
REMARK   32  A    between atoms: _75  and  _76
REMARK   33  A    between atoms: _78  and  _80
REMARK   34  A    between atoms: _80  and  _81
REMARK   35  A    between atoms: _84  and  _86
REMARK   36  A    between atoms: _86  and  _87
REMARK   37  A    between atoms: _90  and  _92
REMARK   38  A    between atoms: _92  and  _93
REMARK   39  A    between atoms: _92  and  _95
REMARK   40  A    between atoms: _95  and  _96
REMARK   41  A    between atoms: _101  and  _103
REMARK   42  A    between atoms: _103  and  _104
REMARK   43  A    between atoms: _103  and  _106
REMARK   44  A    between atoms: _106  and  _107
REMARK   45  A    between atoms: _108  and  _110
REMARK   46  A    between atoms: _110  and  _111
REMARK   47  A    between atoms: _110  and  _113
REMARK   48  A    between atoms: _113  and  _114
REMARK   49  A    between atoms: _120  and  _122
REMARK   50  A    between atoms: _122  and  _123
REMARK   51  A    between atoms: _122  and  _125
REMARK   52  A    between atoms: _125  and  _126
REMARK   53  A    between atoms: _131  and  _132
REMARK   54  A    between atoms: _134  and  _136
REMARK   55  A    between atoms: _136  and  _137
REMARK   56  A    between atoms: _136  and  _139
REMARK   57  A    between atoms: _142  and  _144
REMARK   58  A    between atoms: _144  and  _145
REMARK   59  A    between atoms: _148  and  _150
REMARK   60  A    between atoms: _150  and  _151
REMARK   61  A    between atoms: _150  and  _153
REMARK   62  A    between atoms: _153  and  _154
REMARK   63  A    between atoms: _157  and  _159
REMARK   64  A    between atoms: _159  and  _160
REMARK   65  A    between atoms: _159  and  _162
REMARK   66  A    between atoms: _165  and  _167
REMARK   67  A    between atoms: _167  and  _168
REMARK   68  A    between atoms: _167  and  _170
REMARK   69  A    between atoms: _170  and  _171
REMARK   70  A    between atoms: _181  and  _183
REMARK   71  A    between atoms: _183  and  _184
REMARK   72  A    between atoms: _186  and  _188
REMARK   73  A    between atoms: _188  and  _189
REMARK   74  A    between atoms: _188  and  _191
REMARK   75  A    between atoms: _191  and  _192
REMARK   76  A    between atoms: _197  and  _198
REMARK   77  A    between atoms: _200  and  _202
REMARK   78  A    between atoms: _202  and  _203
REMARK   79  A    between atoms: _202  and  _205
REMARK   80  A    between atoms: _205  and  _206
REMARK   81  A    between atoms: _206  and  _207
REMARK   82  A    between atoms: _207  and  _208
REMARK   83  A    between atoms: _208  and  _209
REMARK   84  A    between atoms: _213  and  _215
REMARK   85  A    between atoms: _215  and  _216
REMARK   86  A    between atoms: _215  and  _218
REMARK   87  A    between atoms: _218  and  _219
REMARK   88  A    between atoms: _222  and  _224
REMARK   89  A    between atoms: _224  and  _225
REMARK   90  A    between atoms: _224  and  _227
REMARK   91  A    between atoms: _227  and  _228
REMARK   92  A    between atoms: _231  and  _233
REMARK   93  A    between atoms: _233  and  _234
REMARK   94  A    between atoms: _233  and  _236
REMARK   95  A    between atoms: _236  and  _237
REMARK   96  A    between atoms: _237  and  _238
REMARK   97  A    between atoms: _238  and  _239
REMARK   98  A    between atoms: _239  and  _240
REMARK   99  A    between atoms: _244  and  _246
REMARK  100  A    between atoms: _246  and  _247
REMARK  101  A    between atoms: _246  and  _249
REMARK  102  A    between atoms: _249  and  _250
REMARK  103  A    between atoms: _253  and  _255
REMARK  104  A    between atoms: _255  and  _256
REMARK  105  A    between atoms: _255  and  _258
REMARK  106  A    between atoms: _258  and  _259
REMARK  107  A    between atoms: _264  and  _265
REMARK  108  A    between atoms: _267  and  _269
REMARK  109  A    between atoms: _269  and  _270
REMARK  110  A    between atoms: _269  and  _272
REMARK  111  A    between atoms: _272  and  _273
REMARK  112  A    between atoms: _276  and  _278
REMARK  113  A    between atoms: _278  and  _279
REMARK  114  A    between atoms: _278  and  _281
REMARK  115  A    between atoms: _283  and  _285
REMARK  116  A    between atoms: _285  and  _286
REMARK  117  A    between atoms: _289  and  _291
REMARK  118  A    between atoms: _291  and  _292
REMARK  119  A    between atoms: _291  and  _294
REMARK  120  A    between atoms: _294  and  _295
REMARK  121  A    between atoms: _295  and  _296
REMARK  122  A    between atoms: _296  and  _297
REMARK  123  A    between atoms: _297  and  _298
REMARK  124  A    between atoms: _302  and  _304
REMARK  125  A    between atoms: _304  and  _305
REMARK  126  A    between atoms: _304  and  _307
REMARK  127  A    between atoms: _307  and  _308
REMARK  128  A    between atoms: _311  and  _313
REMARK  129  A    between atoms: _313  and  _314
REMARK  130  A    between atoms: _317  and  _319
REMARK  131  A    between atoms: _319  and  _320
REMARK  132  A    between atoms: _319  and  _322
REMARK  133  A    between atoms: _322  and  _323
REMARK  134  A    between atoms: _323  and  _437
REMARK  135  A    between atoms: _324  and  _326
REMARK  136  A    between atoms: _326  and  _327
REMARK  137  A    between atoms: _326  and  _329
REMARK  138  A    between atoms: _329  and  _330
REMARK  139  A    between atoms: _330  and  _331
REMARK  140  A    between atoms: _331  and  _332
REMARK  141  A    between atoms: _332  and  _333
REMARK  142  A    between atoms: _337  and  _339
REMARK  143  A    between atoms: _339  and  _340
REMARK  144  A    between atoms: _342  and  _344
REMARK  145  A    between atoms: _344  and  _345
REMARK  146  A    between atoms: _344  and  _347
REMARK  147  A    between atoms: _347  and  _348
REMARK  148  A    between atoms: _351  and  _353
REMARK  149  A    between atoms: _353  and  _354
REMARK  150  A    between atoms: _353  and  _356
REMARK  151  A    between atoms: _356  and  _357
REMARK  152  A    between atoms: _359  and  _361
REMARK  153  A    between atoms: _361  and  _362
REMARK  154  A    between atoms: _364  and  _366
REMARK  155  A    between atoms: _366  and  _367
REMARK  156  A    between atoms: _369  and  _371
REMARK  157  A    between atoms: _371  and  _372
REMARK  158  A    between atoms: _371  and  _374
REMARK  159  A    between atoms: _374  and  _375
REMARK  160  A    between atoms: _378  and  _380
REMARK  161  A    between atoms: _380  and  _381
REMARK  162  A    between atoms: _380  and  _383
REMARK  163  A    between atoms: _383  and  _384
REMARK  164  A    between atoms: _387  and  _389
REMARK  165  A    between atoms: _389  and  _390
REMARK  166  A    between atoms: _389  and  _392
REMARK  167  A    between atoms: _392  and  _393
REMARK  168  A    between atoms: _395  and  _397
REMARK  169  A    between atoms: _397  and  _398
REMARK  170  A    between atoms: _397  and  _400
REMARK  171  A    between atoms: _400  and  _401
REMARK  172  A    between atoms: _411  and  _413
REMARK  173  A    between atoms: _413  and  _414
REMARK  174  A    between atoms: _416  and  _418
REMARK  175  A    between atoms: _418  and  _419
REMARK  176  A    between atoms: _418  and  _421
REMARK  177  A    between atoms: _421  and  _422
REMARK  178  A    between atoms: _422  and  _423
REMARK  179  A    between atoms: _426  and  _428
REMARK  180  A    between atoms: _428  and  _429
REMARK  181  A    between atoms: _431  and  _433
REMARK  182  A    between atoms: _433  and  _434
REMARK  183  A    between atoms: _433  and  _436
REMARK  184  A    between atoms: _436  and  _437
REMARK  185  A    between atoms: _438  and  _440
REMARK  186  A    between atoms: _440  and  _441
REMARK  187  A    between atoms: _444  and  _446
REMARK  188  A    between atoms: _446  and  _447
REMARK  189  A    between atoms: _446  and  _449
REMARK  190  A    between atoms: _449  and  _450
REMARK  191  A    between atoms: _450  and  _451
REMARK  192  A    between atoms: _456  and  _458
REMARK  193  A    between atoms: _458  and  _459
REMARK  194  A    between atoms: _458  and  _461
REMARK  195  A    between atoms: _461  and  _462
REMARK  196  A    between atoms: _462  and  _463
REMARK  197  A    between atoms: _463  and  _464
REMARK  198  A    between atoms: _474  and  _475
REMARK  199  A    between atoms: _480  and  _482
REMARK  200  A    between atoms: _482  and  _483
REMARK  201  A    between atoms: _485  and  _487
REMARK  202  A    between atoms: _487  and  _488
REMARK  203  A    between atoms: _487  and  _490
REMARK  204  A    between atoms: _493  and  _495
REMARK  205  A    between atoms: _495  and  _496
REMARK  206  A    between atoms: _495  and  _498
REMARK  207  A    between atoms: _498  and  _499
REMARK  208  A    between atoms: _504  and  _505
REMARK  209  A    between atoms: _507  and  _509
REMARK  210  A    between atoms: _509  and  _510
REMARK  211  A    between atoms: _509  and  _512
REMARK  212  A    between atoms: _512  and  _513
REMARK                            x       y       z     vdW  Elec       q    Type
REMARK                         _______ _______ _______ _____ _____    ______ ____
ROOT
ATOM      1  O   HOH     1      51.192 -21.981  31.077  0.00  0.00    +0.000 OA
ENDROOT
TORSDOF 0
REMARK  Name = ../refined-set-2016/5e2o/5e2o_pocket.pdb
REMARK  212 active torsions:
REMARK  status: ('A' for Active; 'I' for Inactive)
REMARK    1  A    between atoms: _1  and  _5
REMARK    2  A    between atoms: _5  and  _6
REMARK    3  A    between atoms: _5  and  _8
REMARK    4  A    between atoms: _8  and  _9
REMARK    5  A    between atoms: _12  and  _14
REMARK    6  A    between atoms: _14  and  _15
REMARK    7  A    between atoms: _14  and  _17
REMARK    8  A    between atoms: _20  and  _22
REMARK    9  A    between atoms: _22  and  _23
REMARK   10  A    between atoms: _22  and  _25
REMARK   11  A    between atoms: _25  and  _26
REMARK   12  A    between atoms: _29  and  _31
REMARK   13  A    between atoms: _31  and  _32
REMARK   14  A    between atoms: _31  and  _34
REMARK   15  A    between atoms: _34  and  _35
REMARK   16  A    between atoms: _35  and  _36
REMARK   17  A    between atoms: _36  and  _37
REMARK   18  A    between atoms: _46  and  _48
REMARK   19  A    between atoms: _48  and  _49
REMARK   20  A    between atoms: _48  and  _51
REMARK   21  A    between atoms: _51  and  _52
REMARK   22  A    between atoms: _57  and  _59
REMARK   23  A    between atoms: _59  and  _60
REMARK   24  A    between atoms: _59  and  _62
REMARK   25  A    between atoms: _62  and  _63
REMARK   26  A    between atoms: _66  and  _68
REMARK   27  A    between atoms: _68  and  _69
REMARK   28  A    between atoms: _68  and  _71
REMARK   29  A    between atoms: _71  and  _72
REMARK   30  A    between atoms: _72  and  _107
REMARK   31  A    between atoms: _73  and  _75
REMARK   32  A    between atoms: _75  and  _76
REMARK   33  A    between atoms: _78  and  _80
REMARK   34  A    between atoms: _80  and  _81
REMARK   35  A    between atoms: _84  and  _86
REMARK   36  A    between atoms: _86  and  _87
REMARK   37  A    between atoms: _90  and  _92
REMARK   38  A    between atoms: _92  and  _93
REMARK   39  A    between atoms: _92  and  _95
REMARK   40  A    between atoms: _95  and  _96
REMARK   41  A    between atoms: _101  and  _103
REMARK   42  A    between atoms: _103  and  _104
REMARK   43  A    between atoms: _103  and  _106
REMARK   44  A    between atoms: _106  and  _107
REMARK   45  A    between atoms: _108  and  _110
REMARK   46  A    between atoms: _110  and  _111
REMARK   47  A    between atoms: _110  and  _113
REMARK   48  A    between atoms: _113  and  _114
REMARK   49  A    between atoms: _120  and  _122
REMARK   50  A    between atoms: _122  and  _123
REMARK   51  A    between atoms: _122  and  _125
REMARK   52  A    between atoms: _125  and  _126
REMARK   53  A    between atoms: _131  and  _132
REMARK   54  A    between atoms: _134  and  _136
REMARK   55  A    between atoms: _136  and  _137
REMARK   56  A    between atoms: _136  and  _139
REMARK   57  A    between atoms: _142  and  _144
REMARK   58  A    between atoms: _144  and  _145
REMARK   59  A    between atoms: _148  and  _150
REMARK   60  A    between atoms: _150  and  _151
REMARK   61  A    between atoms: _150  and  _153
REMARK   62  A    between atoms: _153  and  _154
REMARK   63  A    between atoms: _157  and  _159
REMARK   64  A    between atoms: _159  and  _160
REMARK   65  A    between atoms: _159  and  _162
REMARK   66  A    between atoms: _165  and  _167
REMARK   67  A    between atoms: _167  and  _168
REMARK   68  A    between atoms: _167  and  _170
REMARK   69  A    between atoms: _170  and  _171
REMARK   70  A    between atoms: _181  and  _183
REMARK   71  A    between atoms: _183  and  _184
REMARK   72  A    between atoms: _186  and  _188
REMARK   73  A    between atoms: _188  and  _189
REMARK   74  A    between atoms: _188  and  _191
REMARK   75  A    between atoms: _191  and  _192
REMARK   76  A    between atoms: _197  and  _198
REMARK   77  A    between atoms: _200  and  _202
REMARK   78  A    between atoms: _202  and  _203
REMARK   79  A    between atoms: _202  and  _205
REMARK   80  A    between atoms: _205  and  _206
REMARK   81  A    between atoms: _206  and  _207
REMARK   82  A    between atoms: _207  and  _208
REMARK   83  A    between atoms: _208  and  _209
REMARK   84  A    between atoms: _213  and  _215
REMARK   85  A    between atoms: _215  and  _216
REMARK   86  A    between atoms: _215  and  _218
REMARK   87  A    between atoms: _218  and  _219
REMARK   88  A    between atoms: _222  and  _224
REMARK   89  A    between atoms: _224  and  _225
REMARK   90  A    between atoms: _224  and  _227
REMARK   91  A    between atoms: _227  and  _228
REMARK   92  A    between atoms: _231  and  _233
REMARK   93  A    between atoms: _233  and  _234
REMARK   94  A    between atoms: _233  and  _236
REMARK   95  A    between atoms: _236  and  _237
REMARK   96  A    between atoms: _237  and  _238
REMARK   97  A    between atoms: _238  and  _239
REMARK   98  A    between atoms: _239  and  _240
REMARK   99  A    between atoms: _244  and  _246
REMARK  100  A    between atoms: _246  and  _247
REMARK  101  A    between atoms: _246  and  _249
REMARK  102  A    between atoms: _249  and  _250
REMARK  103  A    between atoms: _253  and  _255
REMARK  104  A    between atoms: _255  and  _256
REMARK  105  A    between atoms: _255  and  _258
REMARK  106  A    between atoms: _258  and  _259
REMARK  107  A    between atoms: _264  and  _265
REMARK  108  A    between atoms: _267  and  _269
REMARK  109  A    between atoms: _269  and  _270
REMARK  110  A    between atoms: _269  and  _272
REMARK  111  A    between atoms: _272  and  _273
REMARK  112  A    between atoms: _276  and  _278
REMARK  113  A    between atoms: _278  and  _279
REMARK  114  A    between atoms: _278  and  _281
REMARK  115  A    between atoms: _283  and  _285
REMARK  116  A    between atoms: _285  and  _286
REMARK  117  A    between atoms: _289  and  _291
REMARK  118  A    between atoms: _291  and  _292
REMARK  119  A    between atoms: _291  and  _294
REMARK  120  A    between atoms: _294  and  _295
REMARK  121  A    between atoms: _295  and  _296
REMARK  122  A    between atoms: _296  and  _297
REMARK  123  A    between atoms: _297  and  _298
REMARK  124  A    between atoms: _302  and  _304
REMARK  125  A    between atoms: _304  and  _305
REMARK  126  A    between atoms: _304  and  _307
REMARK  127  A    between atoms: _307  and  _308
REMARK  128  A    between atoms: _311  and  _313
REMARK  129  A    between atoms: _313  and  _314
REMARK  130  A    between atoms: _317  and  _319
REMARK  131  A    between atoms: _319  and  _320
REMARK  132  A    between atoms: _319  and  _322
REMARK  133  A    between atoms: _322  and  _323
REMARK  134  A    between atoms: _323  and  _437
REMARK  135  A    between atoms: _324  and  _326
REMARK  136  A    between atoms: _326  and  _327
REMARK  137  A    between atoms: _326  and  _329
REMARK  138  A    between atoms: _329  and  _330
REMARK  139  A    between atoms: _330  and  _331
REMARK  140  A    between atoms: _331  and  _332
REMARK  141  A    between atoms: _332  and  _333
REMARK  142  A    between atoms: _337  and  _339
REMARK  143  A    between atoms: _339  and  _340
REMARK  144  A    between atoms: _342  and  _344
REMARK  145  A    between atoms: _344  and  _345
REMARK  146  A    between atoms: _344  and  _347
REMARK  147  A    between atoms: _347  and  _348
REMARK  148  A    between atoms: _351  and  _353
REMARK  149  A    between atoms: _353  and  _354
REMARK  150  A    between atoms: _353  and  _356
REMARK  151  A    between atoms: _356  and  _357
REMARK  152  A    between atoms: _359  and  _361
REMARK  153  A    between atoms: _361  and  _362
REMARK  154  A    between atoms: _364  and  _366
REMARK  155  A    between atoms: _366  and  _367
REMARK  156  A    between atoms: _369  and  _371
REMARK  157  A    between atoms: _371  and  _372
REMARK  158  A    between atoms: _371  and  _374
REMARK  159  A    between atoms: _374  and  _375
REMARK  160  A    between atoms: _378  and  _380
REMARK  161  A    between atoms: _380  and  _381
REMARK  162  A    between atoms: _380  and  _383
REMARK  163  A    between atoms: _383  and  _384
REMARK  164  A    between atoms: _387  and  _389
REMARK  165  A    between atoms: _389  and  _390
REMARK  166  A    between atoms: _389  and  _392
REMARK  167  A    between atoms: _392  and  _393
REMARK  168  A    between atoms: _395  and  _397
REMARK  169  A    between atoms: _397  and  _398
REMARK  170  A    between atoms: _397  and  _400
REMARK  171  A    between atoms: _400  and  _401
REMARK  172  A    between atoms: _411  and  _413
REMARK  173  A    between atoms: _413  and  _414
REMARK  174  A    between atoms: _416  and  _418
REMARK  175  A    between atoms: _418  and  _419
REMARK  176  A    between atoms: _418  and  _421
REMARK  177  A    between atoms: _421  and  _422
REMARK  178  A    between atoms: _422  and  _423
REMARK  179  A    between atoms: _426  and  _428
REMARK  180  A    between atoms: _428  and  _429
REMARK  181  A    between atoms: _431  and  _433
REMARK  182  A    between atoms: _433  and  _434
REMARK  183  A    between atoms: _433  and  _436
REMARK  184  A    between atoms: _436  and  _437
REMARK  185  A    between atoms: _438  and  _440
REMARK  186  A    between atoms: _440  and  _441
REMARK  187  A    between atoms: _444  and  _446
REMARK  188  A    between atoms: _446  and  _447
REMARK  189  A    between atoms: _446  and  _449
REMARK  190  A    between atoms: _449  and  _450
REMARK  191  A    between atoms: _450  and  _451
REMARK  192  A    between atoms: _456  and  _458
REMARK  193  A    between atoms: _458  and  _459
REMARK  194  A    between atoms: _458  and  _461
REMARK  195  A    between atoms: _461  and  _462
REMARK  196  A    between atoms: _462  and  _463
REMARK  197  A    between atoms: _463  and  _464
REMARK  198  A    between atoms: _474  and  _475
REMARK  199  A    between atoms: _480  and  _482
REMARK  200  A    between atoms: _482  and  _483
REMARK  201  A    between atoms: _485  and  _487
REMARK  202  A    between atoms: _487  and  _488
REMARK  203  A    between atoms: _487  and  _490
REMARK  204  A    between atoms: _493  and  _495
REMARK  205  A    between atoms: _495  and  _496
REMARK  206  A    between atoms: _495  and  _498
REMARK  207  A    between atoms: _498  and  _499
REMARK  208  A    between atoms: _504  and  _505
REMARK  209  A    between atoms: _507  and  _509
REMARK  210  A    between atoms: _509  and  _510
REMARK  211  A    between atoms: _509  and  _512
REMARK  212  A    between atoms: _512  and  _513
REMARK                            x       y       z     vdW  Elec       q    Type
REMARK                         _______ _______ _______ _____ _____    ______ ____
ROOT
ATOM      1  O   HOH     1      43.594  -8.271  25.236  0.00  0.00    +0.000 OA
ENDROOT
TORSDOF 0
REMARK  Name = ../refined-set-2016/5e2o/5e2o_pocket.pdb
REMARK  212 active torsions:
REMARK  status: ('A' for Active; 'I' for Inactive)
REMARK    1  A    between atoms: _1  and  _5
REMARK    2  A    between atoms: _5  and  _6
REMARK    3  A    between atoms: _5  and  _8
REMARK    4  A    between atoms: _8  and  _9
REMARK    5  A    between atoms: _12  and  _14
REMARK    6  A    between atoms: _14  and  _15
REMARK    7  A    between atoms: _14  and  _17
REMARK    8  A    between atoms: _20  and  _22
REMARK    9  A    between atoms: _22  and  _23
REMARK   10  A    between atoms: _22  and  _25
REMARK   11  A    between atoms: _25  and  _26
REMARK   12  A    between atoms: _29  and  _31
REMARK   13  A    between atoms: _31  and  _32
REMARK   14  A    between atoms: _31  and  _34
REMARK   15  A    between atoms: _34  and  _35
REMARK   16  A    between atoms: _35  and  _36
REMARK   17  A    between atoms: _36  and  _37
REMARK   18  A    between atoms: _46  and  _48
REMARK   19  A    between atoms: _48  and  _49
REMARK   20  A    between atoms: _48  and  _51
REMARK   21  A    between atoms: _51  and  _52
REMARK   22  A    between atoms: _57  and  _59
REMARK   23  A    between atoms: _59  and  _60
REMARK   24  A    between atoms: _59  and  _62
REMARK   25  A    between atoms: _62  and  _63
REMARK   26  A    between atoms: _66  and  _68
REMARK   27  A    between atoms: _68  and  _69
REMARK   28  A    between atoms: _68  and  _71
REMARK   29  A    between atoms: _71  and  _72
REMARK   30  A    between atoms: _72  and  _107
REMARK   31  A    between atoms: _73  and  _75
REMARK   32  A    between atoms: _75  and  _76
REMARK   33  A    between atoms: _78  and  _80
REMARK   34  A    between atoms: _80  and  _81
REMARK   35  A    between atoms: _84  and  _86
REMARK   36  A    between atoms: _86  and  _87
REMARK   37  A    between atoms: _90  and  _92
REMARK   38  A    between atoms: _92  and  _93
REMARK   39  A    between atoms: _92  and  _95
REMARK   40  A    between atoms: _95  and  _96
REMARK   41  A    between atoms: _101  and  _103
REMARK   42  A    between atoms: _103  and  _104
REMARK   43  A    between atoms: _103  and  _106
REMARK   44  A    between atoms: _106  and  _107
REMARK   45  A    between atoms: _108  and  _110
REMARK   46  A    between atoms: _110  and  _111
REMARK   47  A    between atoms: _110  and  _113
REMARK   48  A    between atoms: _113  and  _114
REMARK   49  A    between atoms: _120  and  _122
REMARK   50  A    between atoms: _122  and  _123
REMARK   51  A    between atoms: _122  and  _125
REMARK   52  A    between atoms: _125  and  _126
REMARK   53  A    between atoms: _131  and  _132
REMARK   54  A    between atoms: _134  and  _136
REMARK   55  A    between atoms: _136  and  _137
REMARK   56  A    between atoms: _136  and  _139
REMARK   57  A    between atoms: _142  and  _144
REMARK   58  A    between atoms: _144  and  _145
REMARK   59  A    between atoms: _148  and  _150
REMARK   60  A    between atoms: _150  and  _151
REMARK   61  A    between atoms: _150  and  _153
REMARK   62  A    between atoms: _153  and  _154
REMARK   63  A    between atoms: _157  and  _159
REMARK   64  A    between atoms: _159  and  _160
REMARK   65  A    between atoms: _159  and  _162
REMARK   66  A    between atoms: _165  and  _167
REMARK   67  A    between atoms: _167  and  _168
REMARK   68  A    between atoms: _167  and  _170
REMARK   69  A    between atoms: _170  and  _171
REMARK   70  A    between atoms: _181  and  _183
REMARK   71  A    between atoms: _183  and  _184
REMARK   72  A    between atoms: _186  and  _188
REMARK   73  A    between atoms: _188  and  _189
REMARK   74  A    between atoms: _188  and  _191
REMARK   75  A    between atoms: _191  and  _192
REMARK   76  A    between atoms: _197  and  _198
REMARK   77  A    between atoms: _200  and  _202
REMARK   78  A    between atoms: _202  and  _203
REMARK   79  A    between atoms: _202  and  _205
REMARK   80  A    between atoms: _205  and  _206
REMARK   81  A    between atoms: _206  and  _207
REMARK   82  A    between atoms: _207  and  _208
REMARK   83  A    between atoms: _208  and  _209
REMARK   84  A    between atoms: _213  and  _215
REMARK   85  A    between atoms: _215  and  _216
REMARK   86  A    between atoms: _215  and  _218
REMARK   87  A    between atoms: _218  and  _219
REMARK   88  A    between atoms: _222  and  _224
REMARK   89  A    between atoms: _224  and  _225
REMARK   90  A    between atoms: _224  and  _227
REMARK   91  A    between atoms: _227  and  _228
REMARK   92  A    between atoms: _231  and  _233
REMARK   93  A    between atoms: _233  and  _234
REMARK   94  A    between atoms: _233  and  _236
REMARK   95  A    between atoms: _236  and  _237
REMARK   96  A    between atoms: _237  and  _238
REMARK   97  A    between atoms: _238  and  _239
REMARK   98  A    between atoms: _239  and  _240
REMARK   99  A    between atoms: _244  and  _246
REMARK  100  A    between atoms: _246  and  _247
REMARK  101  A    between atoms: _246  and  _249
REMARK  102  A    between atoms: _249  and  _250
REMARK  103  A    between atoms: _253  and  _255
REMARK  104  A    between atoms: _255  and  _256
REMARK  105  A    between atoms: _255  and  _258
REMARK  106  A    between atoms: _258  and  _259
REMARK  107  A    between atoms: _264  and  _265
REMARK  108  A    between atoms: _267  and  _269
REMARK  109  A    between atoms: _269  and  _270
REMARK  110  A    between atoms: _269  and  _272
REMARK  111  A    between atoms: _272  and  _273
REMARK  112  A    between atoms: _276  and  _278
REMARK  113  A    between atoms: _278  and  _279
REMARK  114  A    between atoms: _278  and  _281
REMARK  115  A    between atoms: _283  and  _285
REMARK  116  A    between atoms: _285  and  _286
REMARK  117  A    between atoms: _289  and  _291
REMARK  118  A    between atoms: _291  and  _292
REMARK  119  A    between atoms: _291  and  _294
REMARK  120  A    between atoms: _294  and  _295
REMARK  121  A    between atoms: _295  and  _296
REMARK  122  A    between atoms: _296  and  _297
REMARK  123  A    between atoms: _297  and  _298
REMARK  124  A    between atoms: _302  and  _304
REMARK  125  A    between atoms: _304  and  _305
REMARK  126  A    between atoms: _304  and  _307
REMARK  127  A    between atoms: _307  and  _308
REMARK  128  A    between atoms: _311  and  _313
REMARK  129  A    between atoms: _313  and  _314
REMARK  130  A    between atoms: _317  and  _319
REMARK  131  A    between atoms: _319  and  _320
REMARK  132  A    between atoms: _319  and  _322
REMARK  133  A    between atoms: _322  and  _323
REMARK  134  A    between atoms: _323  and  _437
REMARK  135  A    between atoms: _324  and  _326
REMARK  136  A    between atoms: _326  and  _327
REMARK  137  A    between atoms: _326  and  _329
REMARK  138  A    between atoms: _329  and  _330
REMARK  139  A    between atoms: _330  and  _331
REMARK  140  A    between atoms: _331  and  _332
REMARK  141  A    between atoms: _332  and  _333
REMARK  142  A    between atoms: _337  and  _339
REMARK  143  A    between atoms: _339  and  _340
REMARK  144  A    between atoms: _342  and  _344
REMARK  145  A    between atoms: _344  and  _345
REMARK  146  A    between atoms: _344  and  _347
REMARK  147  A    between atoms: _347  and  _348
REMARK  148  A    between atoms: _351  and  _353
REMARK  149  A    between atoms: _353  and  _354
REMARK  150  A    between atoms: _353  and  _356
REMARK  151  A    between atoms: _356  and  _357
REMARK  152  A    between atoms: _359  and  _361
REMARK  153  A    between atoms: _361  and  _362
REMARK  154  A    between atoms: _364  and  _366
REMARK  155  A    between atoms: _366  and  _367
REMARK  156  A    between atoms: _369  and  _371
REMARK  157  A    between atoms: _371  and  _372
REMARK  158  A    between atoms: _371  and  _374
REMARK  159  A    between atoms: _374  and  _375
REMARK  160  A    between atoms: _378  and  _380
REMARK  161  A    between atoms: _380  and  _381
REMARK  162  A    between atoms: _380  and  _383
REMARK  163  A    between atoms: _383  and  _384
REMARK  164  A    between atoms: _387  and  _389
REMARK  165  A    between atoms: _389  and  _390
REMARK  166  A    between atoms: _389  and  _392
REMARK  167  A    between atoms: _392  and  _393
REMARK  168  A    between atoms: _395  and  _397
REMARK  169  A    between atoms: _397  and  _398
REMARK  170  A    between atoms: _397  and  _400
REMARK  171  A    between atoms: _400  and  _401
REMARK  172  A    between atoms: _411  and  _413
REMARK  173  A    between atoms: _413  and  _414
REMARK  174  A    between atoms: _416  and  _418
REMARK  175  A    between atoms: _418  and  _419
REMARK  176  A    between atoms: _418  and  _421
REMARK  177  A    between atoms: _421  and  _422
REMARK  178  A    between atoms: _422  and  _423
REMARK  179  A    between atoms: _426  and  _428
REMARK  180  A    between atoms: _428  and  _429
REMARK  181  A    between atoms: _431  and  _433
REMARK  182  A    between atoms: _433  and  _434
REMARK  183  A    between atoms: _433  and  _436
REMARK  184  A    between atoms: _436  and  _437
REMARK  185  A    between atoms: _438  and  _440
REMARK  186  A    between atoms: _440  and  _441
REMARK  187  A    between atoms: _444  and  _446
REMARK  188  A    between atoms: _446  and  _447
REMARK  189  A    between atoms: _446  and  _449
REMARK  190  A    between atoms: _449  and  _450
REMARK  191  A    between atoms: _450  and  _451
REMARK  192  A    between atoms: _456  and  _458
REMARK  193  A    between atoms: _458  and  _459
REMARK  194  A    between atoms: _458  and  _461
REMARK  195  A    between atoms: _461  and  _462
REMARK  196  A    between atoms: _462  and  _463
REMARK  197  A    between atoms: _463  and  _464
REMARK  198  A    between atoms: _474  and  _475
REMARK  199  A    between atoms: _480  and  _482
REMARK  200  A    between atoms: _482  and  _483
REMARK  201  A    between atoms: _485  and  _487
REMARK  202  A    between atoms: _487  and  _488
REMARK  203  A    between atoms: _487  and  _490
REMARK  204  A    between atoms: _493  and  _495
REMARK  205  A    between atoms: _495  and  _496
REMARK  206  A    between atoms: _495  and  _498
REMARK  207  A    between atoms: _498  and  _499
REMARK  208  A    between atoms: _504  and  _505
REMARK  209  A    between atoms: _507  and  _509
REMARK  210  A    between atoms: _509  and  _510
REMARK  211  A    between atoms: _509  and  _512
REMARK  212  A    between atoms: _512  and  _513
REMARK                            x       y       z     vdW  Elec       q    Type
REMARK                         _______ _______ _______ _____ _____    ______ ____
ROOT
ATOM      1  O   HOH     1      34.279 -24.931  24.085  0.00  0.00    +0.000 OA
ENDROOT
TORSDOF 0
REMARK  Name = ../refined-set-2016/5e2o/5e2o_pocket.pdb
REMARK  212 active torsions:
REMARK  status: ('A' for Active; 'I' for Inactive)
REMARK    1  A    between atoms: _1  and  _5
REMARK    2  A    between atoms: _5  and  _6
REMARK    3  A    between atoms: _5  and  _8
REMARK    4  A    between atoms: _8  and  _9
REMARK    5  A    between atoms: _12  and  _14
REMARK    6  A    between atoms: _14  and  _15
REMARK    7  A    between atoms: _14  and  _17
REMARK    8  A    between atoms: _20  and  _22
REMARK    9  A    between atoms: _22  and  _23
REMARK   10  A    between atoms: _22  and  _25
REMARK   11  A    between atoms: _25  and  _26
REMARK   12  A    between atoms: _29  and  _31
REMARK   13  A    between atoms: _31  and  _32
REMARK   14  A    between atoms: _31  and  _34
REMARK   15  A    between atoms: _34  and  _35
REMARK   16  A    between atoms: _35  and  _36
REMARK   17  A    between atoms: _36  and  _37
REMARK   18  A    between atoms: _46  and  _48
REMARK   19  A    between atoms: _48  and  _49
REMARK   20  A    between atoms: _48  and  _51
REMARK   21  A    between atoms: _51  and  _52
REMARK   22  A    between atoms: _57  and  _59
REMARK   23  A    between atoms: _59  and  _60
REMARK   24  A    between atoms: _59  and  _62
REMARK   25  A    between atoms: _62  and  _63
REMARK   26  A    between atoms: _66  and  _68
REMARK   27  A    between atoms: _68  and  _69
REMARK   28  A    between atoms: _68  and  _71
REMARK   29  A    between atoms: _71  and  _72
REMARK   30  A    between atoms: _72  and  _107
REMARK   31  A    between atoms: _73  and  _75
REMARK   32  A    between atoms: _75  and  _76
REMARK   33  A    between atoms: _78  and  _80
REMARK   34  A    between atoms: _80  and  _81
REMARK   35  A    between atoms: _84  and  _86
REMARK   36  A    between atoms: _86  and  _87
REMARK   37  A    between atoms: _90  and  _92
REMARK   38  A    between atoms: _92  and  _93
REMARK   39  A    between atoms: _92  and  _95
REMARK   40  A    between atoms: _95  and  _96
REMARK   41  A    between atoms: _101  and  _103
REMARK   42  A    between atoms: _103  and  _104
REMARK   43  A    between atoms: _103  and  _106
REMARK   44  A    between atoms: _106  and  _107
REMARK   45  A    between atoms: _108  and  _110
REMARK   46  A    between atoms: _110  and  _111
REMARK   47  A    between atoms: _110  and  _113
REMARK   48  A    between atoms: _113  and  _114
REMARK   49  A    between atoms: _120  and  _122
REMARK   50  A    between atoms: _122  and  _123
REMARK   51  A    between atoms: _122  and  _125
REMARK   52  A    between atoms: _125  and  _126
REMARK   53  A    between atoms: _131  and  _132
REMARK   54  A    between atoms: _134  and  _136
REMARK   55  A    between atoms: _136  and  _137
REMARK   56  A    between atoms: _136  and  _139
REMARK   57  A    between atoms: _142  and  _144
REMARK   58  A    between atoms: _144  and  _145
REMARK   59  A    between atoms: _148  and  _150
REMARK   60  A    between atoms: _150  and  _151
REMARK   61  A    between atoms: _150  and  _153
REMARK   62  A    between atoms: _153  and  _154
REMARK   63  A    between atoms: _157  and  _159
REMARK   64  A    between atoms: _159  and  _160
REMARK   65  A    between atoms: _159  and  _162
REMARK   66  A    between atoms: _165  and  _167
REMARK   67  A    between atoms: _167  and  _168
REMARK   68  A    between atoms: _167  and  _170
REMARK   69  A    between atoms: _170  and  _171
REMARK   70  A    between atoms: _181  and  _183
REMARK   71  A    between atoms: _183  and  _184
REMARK   72  A    between atoms: _186  and  _188
REMARK   73  A    between atoms: _188  and  _189
REMARK   74  A    between atoms: _188  and  _191
REMARK   75  A    between atoms: _191  and  _192
REMARK   76  A    between atoms: _197  and  _198
REMARK   77  A    between atoms: _200  and  _202
REMARK   78  A    between atoms: _202  and  _203
REMARK   79  A    between atoms: _202  and  _205
REMARK   80  A    between atoms: _205  and  _206
REMARK   81  A    between atoms: _206  and  _207
REMARK   82  A    between atoms: _207  and  _208
REMARK   83  A    between atoms: _208  and  _209
REMARK   84  A    between atoms: _213  and  _215
REMARK   85  A    between atoms: _215  and  _216
REMARK   86  A    between atoms: _215  and  _218
REMARK   87  A    between atoms: _218  and  _219
REMARK   88  A    between atoms: _222  and  _224
REMARK   89  A    between atoms: _224  and  _225
REMARK   90  A    between atoms: _224  and  _227
REMARK   91  A    between atoms: _227  and  _228
REMARK   92  A    between atoms: _231  and  _233
REMARK   93  A    between atoms: _233  and  _234
REMARK   94  A    between atoms: _233  and  _236
REMARK   95  A    between atoms: _236  and  _237
REMARK   96  A    between atoms: _237  and  _238
REMARK   97  A    between atoms: _238  and  _239
REMARK   98  A    between atoms: _239  and  _240
REMARK   99  A    between atoms: _244  and  _246
REMARK  100  A    between atoms: _246  and  _247
REMARK  101  A    between atoms: _246  and  _249
REMARK  102  A    between atoms: _249  and  _250
REMARK  103  A    between atoms: _253  and  _255
REMARK  104  A    between atoms: _255  and  _256
REMARK  105  A    between atoms: _255  and  _258
REMARK  106  A    between atoms: _258  and  _259
REMARK  107  A    between atoms: _264  and  _265
REMARK  108  A    between atoms: _267  and  _269
REMARK  109  A    between atoms: _269  and  _270
REMARK  110  A    between atoms: _269  and  _272
REMARK  111  A    between atoms: _272  and  _273
REMARK  112  A    between atoms: _276  and  _278
REMARK  113  A    between atoms: _278  and  _279
REMARK  114  A    between atoms: _278  and  _281
REMARK  115  A    between atoms: _283  and  _285
REMARK  116  A    between atoms: _285  and  _286
REMARK  117  A    between atoms: _289  and  _291
REMARK  118  A    between atoms: _291  and  _292
REMARK  119  A    between atoms: _291  and  _294
REMARK  120  A    between atoms: _294  and  _295
REMARK  121  A    between atoms: _295  and  _296
REMARK  122  A    between atoms: _296  and  _297
REMARK  123  A    between atoms: _297  and  _298
REMARK  124  A    between atoms: _302  and  _304
REMARK  125  A    between atoms: _304  and  _305
REMARK  126  A    between atoms: _304  and  _307
REMARK  127  A    between atoms: _307  and  _308
REMARK  128  A    between atoms: _311  and  _313
REMARK  129  A    between atoms: _313  and  _314
REMARK  130  A    between atoms: _317  and  _319
REMARK  131  A    between atoms: _319  and  _320
REMARK  132  A    between atoms: _319  and  _322
REMARK  133  A    between atoms: _322  and  _323
REMARK  134  A    between atoms: _323  and  _437
REMARK  135  A    between atoms: _324  and  _326
REMARK  136  A    between atoms: _326  and  _327
REMARK  137  A    between atoms: _326  and  _329
REMARK  138  A    between atoms: _329  and  _330
REMARK  139  A    between atoms: _330  and  _331
REMARK  140  A    between atoms: _331  and  _332
REMARK  141  A    between atoms: _332  and  _333
REMARK  142  A    between atoms: _337  and  _339
REMARK  143  A    between atoms: _339  and  _340
REMARK  144  A    between atoms: _342  and  _344
REMARK  145  A    between atoms: _344  and  _345
REMARK  146  A    between atoms: _344  and  _347
REMARK  147  A    between atoms: _347  and  _348
REMARK  148  A    between atoms: _351  and  _353
REMARK  149  A    between atoms: _353  and  _354
REMARK  150  A    between atoms: _353  and  _356
REMARK  151  A    between atoms: _356  and  _357
REMARK  152  A    between atoms: _359  and  _361
REMARK  153  A    between atoms: _361  and  _362
REMARK  154  A    between atoms: _364  and  _366
REMARK  155  A    between atoms: _366  and  _367
REMARK  156  A    between atoms: _369  and  _371
REMARK  157  A    between atoms: _371  and  _372
REMARK  158  A    between atoms: _371  and  _374
REMARK  159  A    between atoms: _374  and  _375
REMARK  160  A    between atoms: _378  and  _380
REMARK  161  A    between atoms: _380  and  _381
REMARK  162  A    between atoms: _380  and  _383
REMARK  163  A    between atoms: _383  and  _384
REMARK  164  A    between atoms: _387  and  _389
REMARK  165  A    between atoms: _389  and  _390
REMARK  166  A    between atoms: _389  and  _392
REMARK  167  A    between atoms: _392  and  _393
REMARK  168  A    between atoms: _395  and  _397
REMARK  169  A    between atoms: _397  and  _398
REMARK  170  A    between atoms: _397  and  _400
REMARK  171  A    between atoms: _400  and  _401
REMARK  172  A    between atoms: _411  and  _413
REMARK  173  A    between atoms: _413  and  _414
REMARK  174  A    between atoms: _416  and  _418
REMARK  175  A    between atoms: _418  and  _419
REMARK  176  A    between atoms: _418  and  _421
REMARK  177  A    between atoms: _421  and  _422
REMARK  178  A    between atoms: _422  and  _423
REMARK  179  A    between atoms: _426  and  _428
REMARK  180  A    between atoms: _428  and  _429
REMARK  181  A    between atoms: _431  and  _433
REMARK  182  A    between atoms: _433  and  _434
REMARK  183  A    between atoms: _433  and  _436
REMARK  184  A    between atoms: _436  and  _437
REMARK  185  A    between atoms: _438  and  _440
REMARK  186  A    between atoms: _440  and  _441
REMARK  187  A    between atoms: _444  and  _446
REMARK  188  A    between atoms: _446  and  _447
REMARK  189  A    between atoms: _446  and  _449
REMARK  190  A    between atoms: _449  and  _450
REMARK  191  A    between atoms: _450  and  _451
REMARK  192  A    between atoms: _456  and  _458
REMARK  193  A    between atoms: _458  and  _459
REMARK  194  A    between atoms: _458  and  _461
REMARK  195  A    between atoms: _461  and  _462
REMARK  196  A    between atoms: _462  and  _463
REMARK  197  A    between atoms: _463  and  _464
REMARK  198  A    between atoms: _474  and  _475
REMARK  199  A    between atoms: _480  and  _482
REMARK  200  A    between atoms: _482  and  _483
REMARK  201  A    between atoms: _485  and  _487
REMARK  202  A    between atoms: _487  and  _488
REMARK  203  A    between atoms: _487  and  _490
REMARK  204  A    between atoms: _493  and  _495
REMARK  205  A    between atoms: _495  and  _496
REMARK  206  A    between atoms: _495  and  _498
REMARK  207  A    between atoms: _498  and  _499
REMARK  208  A    between atoms: _504  and  _505
REMARK  209  A    between atoms: _507  and  _509
REMARK  210  A    between atoms: _509  and  _510
REMARK  211  A    between atoms: _509  and  _512
REMARK  212  A    between atoms: _512  and  _513
REMARK                            x       y       z     vdW  Elec       q    Type
REMARK                         _______ _______ _______ _____ _____    ______ ____
ROOT
ATOM      1  O   HOH     1      41.427 -23.139  23.882  0.00  0.00    +0.000 OA
ENDROOT
TORSDOF 0
REMARK  Name = ../refined-set-2016/5e2o/5e2o_pocket.pdb
REMARK  212 active torsions:
REMARK  status: ('A' for Active; 'I' for Inactive)
REMARK    1  A    between atoms: _1  and  _5
REMARK    2  A    between atoms: _5  and  _6
REMARK    3  A    between atoms: _5  and  _8
REMARK    4  A    between atoms: _8  and  _9
REMARK    5  A    between atoms: _12  and  _14
REMARK    6  A    between atoms: _14  and  _15
REMARK    7  A    between atoms: _14  and  _17
REMARK    8  A    between atoms: _20  and  _22
REMARK    9  A    between atoms: _22  and  _23
REMARK   10  A    between atoms: _22  and  _25
REMARK   11  A    between atoms: _25  and  _26
REMARK   12  A    between atoms: _29  and  _31
REMARK   13  A    between atoms: _31  and  _32
REMARK   14  A    between atoms: _31  and  _34
REMARK   15  A    between atoms: _34  and  _35
REMARK   16  A    between atoms: _35  and  _36
REMARK   17  A    between atoms: _36  and  _37
REMARK   18  A    between atoms: _46  and  _48
REMARK   19  A    between atoms: _48  and  _49
REMARK   20  A    between atoms: _48  and  _51
REMARK   21  A    between atoms: _51  and  _52
REMARK   22  A    between atoms: _57  and  _59
REMARK   23  A    between atoms: _59  and  _60
REMARK   24  A    between atoms: _59  and  _62
REMARK   25  A    between atoms: _62  and  _63
REMARK   26  A    between atoms: _66  and  _68
REMARK   27  A    between atoms: _68  and  _69
REMARK   28  A    between atoms: _68  and  _71
REMARK   29  A    between atoms: _71  and  _72
REMARK   30  A    between atoms: _72  and  _107
REMARK   31  A    between atoms: _73  and  _75
REMARK   32  A    between atoms: _75  and  _76
REMARK   33  A    between atoms: _78  and  _80
REMARK   34  A    between atoms: _80  and  _81
REMARK   35  A    between atoms: _84  and  _86
REMARK   36  A    between atoms: _86  and  _87
REMARK   37  A    between atoms: _90  and  _92
REMARK   38  A    between atoms: _92  and  _93
REMARK   39  A    between atoms: _92  and  _95
REMARK   40  A    between atoms: _95  and  _96
REMARK   41  A    between atoms: _101  and  _103
REMARK   42  A    between atoms: _103  and  _104
REMARK   43  A    between atoms: _103  and  _106
REMARK   44  A    between atoms: _106  and  _107
REMARK   45  A    between atoms: _108  and  _110
REMARK   46  A    between atoms: _110  and  _111
REMARK   47  A    between atoms: _110  and  _113
REMARK   48  A    between atoms: _113  and  _114
REMARK   49  A    between atoms: _120  and  _122
REMARK   50  A    between atoms: _122  and  _123
REMARK   51  A    between atoms: _122  and  _125
REMARK   52  A    between atoms: _125  and  _126
REMARK   53  A    between atoms: _131  and  _132
REMARK   54  A    between atoms: _134  and  _136
REMARK   55  A    between atoms: _136  and  _137
REMARK   56  A    between atoms: _136  and  _139
REMARK   57  A    between atoms: _142  and  _144
REMARK   58  A    between atoms: _144  and  _145
REMARK   59  A    between atoms: _148  and  _150
REMARK   60  A    between atoms: _150  and  _151
REMARK   61  A    between atoms: _150  and  _153
REMARK   62  A    between atoms: _153  and  _154
REMARK   63  A    between atoms: _157  and  _159
REMARK   64  A    between atoms: _159  and  _160
REMARK   65  A    between atoms: _159  and  _162
REMARK   66  A    between atoms: _165  and  _167
REMARK   67  A    between atoms: _167  and  _168
REMARK   68  A    between atoms: _167  and  _170
REMARK   69  A    between atoms: _170  and  _171
REMARK   70  A    between atoms: _181  and  _183
REMARK   71  A    between atoms: _183  and  _184
REMARK   72  A    between atoms: _186  and  _188
REMARK   73  A    between atoms: _188  and  _189
REMARK   74  A    between atoms: _188  and  _191
REMARK   75  A    between atoms: _191  and  _192
REMARK   76  A    between atoms: _197  and  _198
REMARK   77  A    between atoms: _200  and  _202
REMARK   78  A    between atoms: _202  and  _203
REMARK   79  A    between atoms: _202  and  _205
REMARK   80  A    between atoms: _205  and  _206
REMARK   81  A    between atoms: _206  and  _207
REMARK   82  A    between atoms: _207  and  _208
REMARK   83  A    between atoms: _208  and  _209
REMARK   84  A    between atoms: _213  and  _215
REMARK   85  A    between atoms: _215  and  _216
REMARK   86  A    between atoms: _215  and  _218
REMARK   87  A    between atoms: _218  and  _219
REMARK   88  A    between atoms: _222  and  _224
REMARK   89  A    between atoms: _224  and  _225
REMARK   90  A    between atoms: _224  and  _227
REMARK   91  A    between atoms: _227  and  _228
REMARK   92  A    between atoms: _231  and  _233
REMARK   93  A    between atoms: _233  and  _234
REMARK   94  A    between atoms: _233  and  _236
REMARK   95  A    between atoms: _236  and  _237
REMARK   96  A    between atoms: _237  and  _238
REMARK   97  A    between atoms: _238  and  _239
REMARK   98  A    between atoms: _239  and  _240
REMARK   99  A    between atoms: _244  and  _246
REMARK  100  A    between atoms: _246  and  _247
REMARK  101  A    between atoms: _246  and  _249
REMARK  102  A    between atoms: _249  and  _250
REMARK  103  A    between atoms: _253  and  _255
REMARK  104  A    between atoms: _255  and  _256
REMARK  105  A    between atoms: _255  and  _258
REMARK  106  A    between atoms: _258  and  _259
REMARK  107  A    between atoms: _264  and  _265
REMARK  108  A    between atoms: _267  and  _269
REMARK  109  A    between atoms: _269  and  _270
REMARK  110  A    between atoms: _269  and  _272
REMARK  111  A    between atoms: _272  and  _273
REMARK  112  A    between atoms: _276  and  _278
REMARK  113  A    between atoms: _278  and  _279
REMARK  114  A    between atoms: _278  and  _281
REMARK  115  A    between atoms: _283  and  _285
REMARK  116  A    between atoms: _285  and  _286
REMARK  117  A    between atoms: _289  and  _291
REMARK  118  A    between atoms: _291  and  _292
REMARK  119  A    between atoms: _291  and  _294
REMARK  120  A    between atoms: _294  and  _295
REMARK  121  A    between atoms: _295  and  _296
REMARK  122  A    between atoms: _296  and  _297
REMARK  123  A    between atoms: _297  and  _298
REMARK  124  A    between atoms: _302  and  _304
REMARK  125  A    between atoms: _304  and  _305
REMARK  126  A    between atoms: _304  and  _307
REMARK  127  A    between atoms: _307  and  _308
REMARK  128  A    between atoms: _311  and  _313
REMARK  129  A    between atoms: _313  and  _314
REMARK  130  A    between atoms: _317  and  _319
REMARK  131  A    between atoms: _319  and  _320
REMARK  132  A    between atoms: _319  and  _322
REMARK  133  A    between atoms: _322  and  _323
REMARK  134  A    between atoms: _323  and  _437
REMARK  135  A    between atoms: _324  and  _326
REMARK  136  A    between atoms: _326  and  _327
REMARK  137  A    between atoms: _326  and  _329
REMARK  138  A    between atoms: _329  and  _330
REMARK  139  A    between atoms: _330  and  _331
REMARK  140  A    between atoms: _331  and  _332
REMARK  141  A    between atoms: _332  and  _333
REMARK  142  A    between atoms: _337  and  _339
REMARK  143  A    between atoms: _339  and  _340
REMARK  144  A    between atoms: _342  and  _344
REMARK  145  A    between atoms: _344  and  _345
REMARK  146  A    between atoms: _344  and  _347
REMARK  147  A    between atoms: _347  and  _348
REMARK  148  A    between atoms: _351  and  _353
REMARK  149  A    between atoms: _353  and  _354
REMARK  150  A    between atoms: _353  and  _356
REMARK  151  A    between atoms: _356  and  _357
REMARK  152  A    between atoms: _359  and  _361
REMARK  153  A    between atoms: _361  and  _362
REMARK  154  A    between atoms: _364  and  _366
REMARK  155  A    between atoms: _366  and  _367
REMARK  156  A    between atoms: _369  and  _371
REMARK  157  A    between atoms: _371  and  _372
REMARK  158  A    between atoms: _371  and  _374
REMARK  159  A    between atoms: _374  and  _375
REMARK  160  A    between atoms: _378  and  _380
REMARK  161  A    between atoms: _380  and  _381
REMARK  162  A    between atoms: _380  and  _383
REMARK  163  A    between atoms: _383  and  _384
REMARK  164  A    between atoms: _387  and  _389
REMARK  165  A    between atoms: _389  and  _390
REMARK  166  A    between atoms: _389  and  _392
REMARK  167  A    between atoms: _392  and  _393
REMARK  168  A    between atoms: _395  and  _397
REMARK  169  A    between atoms: _397  and  _398
REMARK  170  A    between atoms: _397  and  _400
REMARK  171  A    between atoms: _400  and  _401
REMARK  172  A    between atoms: _411  and  _413
REMARK  173  A    between atoms: _413  and  _414
REMARK  174  A    between atoms: _416  and  _418
REMARK  175  A    between atoms: _418  and  _419
REMARK  176  A    between atoms: _418  and  _421
REMARK  177  A    between atoms: _421  and  _422
REMARK  178  A    between atoms: _422  and  _423
REMARK  179  A    between atoms: _426  and  _428
REMARK  180  A    between atoms: _428  and  _429
REMARK  181  A    between atoms: _431  and  _433
REMARK  182  A    between atoms: _433  and  _434
REMARK  183  A    between atoms: _433  and  _436
REMARK  184  A    between atoms: _436  and  _437
REMARK  185  A    between atoms: _438  and  _440
REMARK  186  A    between atoms: _440  and  _441
REMARK  187  A    between atoms: _444  and  _446
REMARK  188  A    between atoms: _446  and  _447
REMARK  189  A    between atoms: _446  and  _449
REMARK  190  A    between atoms: _449  and  _450
REMARK  191  A    between atoms: _450  and  _451
REMARK  192  A    between atoms: _456  and  _458
REMARK  193  A    between atoms: _458  and  _459
REMARK  194  A    between atoms: _458  and  _461
REMARK  195  A    between atoms: _461  and  _462
REMARK  196  A    between atoms: _462  and  _463
REMARK  197  A    between atoms: _463  and  _464
REMARK  198  A    between atoms: _474  and  _475
REMARK  199  A    between atoms: _480  and  _482
REMARK  200  A    between atoms: _482  and  _483
REMARK  201  A    between atoms: _485  and  _487
REMARK  202  A    between atoms: _487  and  _488
REMARK  203  A    between atoms: _487  and  _490
REMARK  204  A    between atoms: _493  and  _495
REMARK  205  A    between atoms: _495  and  _496
REMARK  206  A    between atoms: _495  and  _498
REMARK  207  A    between atoms: _498  and  _499
REMARK  208  A    between atoms: _504  and  _505
REMARK  209  A    between atoms: _507  and  _509
REMARK  210  A    between atoms: _509  and  _510
REMARK  211  A    between atoms: _509  and  _512
REMARK  212  A    between atoms: _512  and  _513
REMARK                            x       y       z     vdW  Elec       q    Type
REMARK                         _______ _______ _______ _____ _____    ______ ____
ROOT
ATOM      1  O   HOH     1      42.219 -28.336  27.398  0.00  0.00    +0.000 OA
ENDROOT
TORSDOF 0
REMARK  Name = ../refined-set-2016/5e2o/5e2o_pocket.pdb
REMARK  212 active torsions:
REMARK  status: ('A' for Active; 'I' for Inactive)
REMARK    1  A    between atoms: _1  and  _5
REMARK    2  A    between atoms: _5  and  _6
REMARK    3  A    between atoms: _5  and  _8
REMARK    4  A    between atoms: _8  and  _9
REMARK    5  A    between atoms: _12  and  _14
REMARK    6  A    between atoms: _14  and  _15
REMARK    7  A    between atoms: _14  and  _17
REMARK    8  A    between atoms: _20  and  _22
REMARK    9  A    between atoms: _22  and  _23
REMARK   10  A    between atoms: _22  and  _25
REMARK   11  A    between atoms: _25  and  _26
REMARK   12  A    between atoms: _29  and  _31
REMARK   13  A    between atoms: _31  and  _32
REMARK   14  A    between atoms: _31  and  _34
REMARK   15  A    between atoms: _34  and  _35
REMARK   16  A    between atoms: _35  and  _36
REMARK   17  A    between atoms: _36  and  _37
REMARK   18  A    between atoms: _46  and  _48
REMARK   19  A    between atoms: _48  and  _49
REMARK   20  A    between atoms: _48  and  _51
REMARK   21  A    between atoms: _51  and  _52
REMARK   22  A    between atoms: _57  and  _59
REMARK   23  A    between atoms: _59  and  _60
REMARK   24  A    between atoms: _59  and  _62
REMARK   25  A    between atoms: _62  and  _63
REMARK   26  A    between atoms: _66  and  _68
REMARK   27  A    between atoms: _68  and  _69
REMARK   28  A    between atoms: _68  and  _71
REMARK   29  A    between atoms: _71  and  _72
REMARK   30  A    between atoms: _72  and  _107
REMARK   31  A    between atoms: _73  and  _75
REMARK   32  A    between atoms: _75  and  _76
REMARK   33  A    between atoms: _78  and  _80
REMARK   34  A    between atoms: _80  and  _81
REMARK   35  A    between atoms: _84  and  _86
REMARK   36  A    between atoms: _86  and  _87
REMARK   37  A    between atoms: _90  and  _92
REMARK   38  A    between atoms: _92  and  _93
REMARK   39  A    between atoms: _92  and  _95
REMARK   40  A    between atoms: _95  and  _96
REMARK   41  A    between atoms: _101  and  _103
REMARK   42  A    between atoms: _103  and  _104
REMARK   43  A    between atoms: _103  and  _106
REMARK   44  A    between atoms: _106  and  _107
REMARK   45  A    between atoms: _108  and  _110
REMARK   46  A    between atoms: _110  and  _111
REMARK   47  A    between atoms: _110  and  _113
REMARK   48  A    between atoms: _113  and  _114
REMARK   49  A    between atoms: _120  and  _122
REMARK   50  A    between atoms: _122  and  _123
REMARK   51  A    between atoms: _122  and  _125
REMARK   52  A    between atoms: _125  and  _126
REMARK   53  A    between atoms: _131  and  _132
REMARK   54  A    between atoms: _134  and  _136
REMARK   55  A    between atoms: _136  and  _137
REMARK   56  A    between atoms: _136  and  _139
REMARK   57  A    between atoms: _142  and  _144
REMARK   58  A    between atoms: _144  and  _145
REMARK   59  A    between atoms: _148  and  _150
REMARK   60  A    between atoms: _150  and  _151
REMARK   61  A    between atoms: _150  and  _153
REMARK   62  A    between atoms: _153  and  _154
REMARK   63  A    between atoms: _157  and  _159
REMARK   64  A    between atoms: _159  and  _160
REMARK   65  A    between atoms: _159  and  _162
REMARK   66  A    between atoms: _165  and  _167
REMARK   67  A    between atoms: _167  and  _168
REMARK   68  A    between atoms: _167  and  _170
REMARK   69  A    between atoms: _170  and  _171
REMARK   70  A    between atoms: _181  and  _183
REMARK   71  A    between atoms: _183  and  _184
REMARK   72  A    between atoms: _186  and  _188
REMARK   73  A    between atoms: _188  and  _189
REMARK   74  A    between atoms: _188  and  _191
REMARK   75  A    between atoms: _191  and  _192
REMARK   76  A    between atoms: _197  and  _198
REMARK   77  A    between atoms: _200  and  _202
REMARK   78  A    between atoms: _202  and  _203
REMARK   79  A    between atoms: _202  and  _205
REMARK   80  A    between atoms: _205  and  _206
REMARK   81  A    between atoms: _206  and  _207
REMARK   82  A    between atoms: _207  and  _208
REMARK   83  A    between atoms: _208  and  _209
REMARK   84  A    between atoms: _213  and  _215
REMARK   85  A    between atoms: _215  and  _216
REMARK   86  A    between atoms: _215  and  _218
REMARK   87  A    between atoms: _218  and  _219
REMARK   88  A    between atoms: _222  and  _224
REMARK   89  A    between atoms: _224  and  _225
REMARK   90  A    between atoms: _224  and  _227
REMARK   91  A    between atoms: _227  and  _228
REMARK   92  A    between atoms: _231  and  _233
REMARK   93  A    between atoms: _233  and  _234
REMARK   94  A    between atoms: _233  and  _236
REMARK   95  A    between atoms: _236  and  _237
REMARK   96  A    between atoms: _237  and  _238
REMARK   97  A    between atoms: _238  and  _239
REMARK   98  A    between atoms: _239  and  _240
REMARK   99  A    between atoms: _244  and  _246
REMARK  100  A    between atoms: _246  and  _247
REMARK  101  A    between atoms: _246  and  _249
REMARK  102  A    between atoms: _249  and  _250
REMARK  103  A    between atoms: _253  and  _255
REMARK  104  A    between atoms: _255  and  _256
REMARK  105  A    between atoms: _255  and  _258
REMARK  106  A    between atoms: _258  and  _259
REMARK  107  A    between atoms: _264  and  _265
REMARK  108  A    between atoms: _267  and  _269
REMARK  109  A    between atoms: _269  and  _270
REMARK  110  A    between atoms: _269  and  _272
REMARK  111  A    between atoms: _272  and  _273
REMARK  112  A    between atoms: _276  and  _278
REMARK  113  A    between atoms: _278  and  _279
REMARK  114  A    between atoms: _278  and  _281
REMARK  115  A    between atoms: _283  and  _285
REMARK  116  A    between atoms: _285  and  _286
REMARK  117  A    between atoms: _289  and  _291
REMARK  118  A    between atoms: _291  and  _292
REMARK  119  A    between atoms: _291  and  _294
REMARK  120  A    between atoms: _294  and  _295
REMARK  121  A    between atoms: _295  and  _296
REMARK  122  A    between atoms: _296  and  _297
REMARK  123  A    between atoms: _297  and  _298
REMARK  124  A    between atoms: _302  and  _304
REMARK  125  A    between atoms: _304  and  _305
REMARK  126  A    between atoms: _304  and  _307
REMARK  127  A    between atoms: _307  and  _308
REMARK  128  A    between atoms: _311  and  _313
REMARK  129  A    between atoms: _313  and  _314
REMARK  130  A    between atoms: _317  and  _319
REMARK  131  A    between atoms: _319  and  _320
REMARK  132  A    between atoms: _319  and  _322
REMARK  133  A    between atoms: _322  and  _323
REMARK  134  A    between atoms: _323  and  _437
REMARK  135  A    between atoms: _324  and  _326
REMARK  136  A    between atoms: _326  and  _327
REMARK  137  A    between atoms: _326  and  _329
REMARK  138  A    between atoms: _329  and  _330
REMARK  139  A    between atoms: _330  and  _331
REMARK  140  A    between atoms: _331  and  _332
REMARK  141  A    between atoms: _332  and  _333
REMARK  142  A    between atoms: _337  and  _339
REMARK  143  A    between atoms: _339  and  _340
REMARK  144  A    between atoms: _342  and  _344
REMARK  145  A    between atoms: _344  and  _345
REMARK  146  A    between atoms: _344  and  _347
REMARK  147  A    between atoms: _347  and  _348
REMARK  148  A    between atoms: _351  and  _353
REMARK  149  A    between atoms: _353  and  _354
REMARK  150  A    between atoms: _353  and  _356
REMARK  151  A    between atoms: _356  and  _357
REMARK  152  A    between atoms: _359  and  _361
REMARK  153  A    between atoms: _361  and  _362
REMARK  154  A    between atoms: _364  and  _366
REMARK  155  A    between atoms: _366  and  _367
REMARK  156  A    between atoms: _369  and  _371
REMARK  157  A    between atoms: _371  and  _372
REMARK  158  A    between atoms: _371  and  _374
REMARK  159  A    between atoms: _374  and  _375
REMARK  160  A    between atoms: _378  and  _380
REMARK  161  A    between atoms: _380  and  _381
REMARK  162  A    between atoms: _380  and  _383
REMARK  163  A    between atoms: _383  and  _384
REMARK  164  A    between atoms: _387  and  _389
REMARK  165  A    between atoms: _389  and  _390
REMARK  166  A    between atoms: _389  and  _392
REMARK  167  A    between atoms: _392  and  _393
REMARK  168  A    between atoms: _395  and  _397
REMARK  169  A    between atoms: _397  and  _398
REMARK  170  A    between atoms: _397  and  _400
REMARK  171  A    between atoms: _400  and  _401
REMARK  172  A    between atoms: _411  and  _413
REMARK  173  A    between atoms: _413  and  _414
REMARK  174  A    between atoms: _416  and  _418
REMARK  175  A    between atoms: _418  and  _419
REMARK  176  A    between atoms: _418  and  _421
REMARK  177  A    between atoms: _421  and  _422
REMARK  178  A    between atoms: _422  and  _423
REMARK  179  A    between atoms: _426  and  _428
REMARK  180  A    between atoms: _428  and  _429
REMARK  181  A    between atoms: _431  and  _433
REMARK  182  A    between atoms: _433  and  _434
REMARK  183  A    between atoms: _433  and  _436
REMARK  184  A    between atoms: _436  and  _437
REMARK  185  A    between atoms: _438  and  _440
REMARK  186  A    between atoms: _440  and  _441
REMARK  187  A    between atoms: _444  and  _446
REMARK  188  A    between atoms: _446  and  _447
REMARK  189  A    between atoms: _446  and  _449
REMARK  190  A    between atoms: _449  and  _450
REMARK  191  A    between atoms: _450  and  _451
REMARK  192  A    between atoms: _456  and  _458
REMARK  193  A    between atoms: _458  and  _459
REMARK  194  A    between atoms: _458  and  _461
REMARK  195  A    between atoms: _461  and  _462
REMARK  196  A    between atoms: _462  and  _463
REMARK  197  A    between atoms: _463  and  _464
REMARK  198  A    between atoms: _474  and  _475
REMARK  199  A    between atoms: _480  and  _482
REMARK  200  A    between atoms: _482  and  _483
REMARK  201  A    between atoms: _485  and  _487
REMARK  202  A    between atoms: _487  and  _488
REMARK  203  A    between atoms: _487  and  _490
REMARK  204  A    between atoms: _493  and  _495
REMARK  205  A    between atoms: _495  and  _496
REMARK  206  A    between atoms: _495  and  _498
REMARK  207  A    between atoms: _498  and  _499
REMARK  208  A    between atoms: _504  and  _505
REMARK  209  A    between atoms: _507  and  _509
REMARK  210  A    between atoms: _509  and  _510
REMARK  211  A    between atoms: _509  and  _512
REMARK  212  A    between atoms: _512  and  _513
REMARK                            x       y       z     vdW  Elec       q    Type
REMARK                         _______ _______ _______ _____ _____    ______ ____
ROOT
ATOM      1  O   HOH     1      43.696 -30.146  30.828  0.00  0.00    +0.000 OA
ENDROOT
TORSDOF 0
REMARK  Name = ../refined-set-2016/5e2o/5e2o_pocket.pdb
REMARK  212 active torsions:
REMARK  status: ('A' for Active; 'I' for Inactive)
REMARK    1  A    between atoms: _1  and  _5
REMARK    2  A    between atoms: _5  and  _6
REMARK    3  A    between atoms: _5  and  _8
REMARK    4  A    between atoms: _8  and  _9
REMARK    5  A    between atoms: _12  and  _14
REMARK    6  A    between atoms: _14  and  _15
REMARK    7  A    between atoms: _14  and  _17
REMARK    8  A    between atoms: _20  and  _22
REMARK    9  A    between atoms: _22  and  _23
REMARK   10  A    between atoms: _22  and  _25
REMARK   11  A    between atoms: _25  and  _26
REMARK   12  A    between atoms: _29  and  _31
REMARK   13  A    between atoms: _31  and  _32
REMARK   14  A    between atoms: _31  and  _34
REMARK   15  A    between atoms: _34  and  _35
REMARK   16  A    between atoms: _35  and  _36
REMARK   17  A    between atoms: _36  and  _37
REMARK   18  A    between atoms: _46  and  _48
REMARK   19  A    between atoms: _48  and  _49
REMARK   20  A    between atoms: _48  and  _51
REMARK   21  A    between atoms: _51  and  _52
REMARK   22  A    between atoms: _57  and  _59
REMARK   23  A    between atoms: _59  and  _60
REMARK   24  A    between atoms: _59  and  _62
REMARK   25  A    between atoms: _62  and  _63
REMARK   26  A    between atoms: _66  and  _68
REMARK   27  A    between atoms: _68  and  _69
REMARK   28  A    between atoms: _68  and  _71
REMARK   29  A    between atoms: _71  and  _72
REMARK   30  A    between atoms: _72  and  _107
REMARK   31  A    between atoms: _73  and  _75
REMARK   32  A    between atoms: _75  and  _76
REMARK   33  A    between atoms: _78  and  _80
REMARK   34  A    between atoms: _80  and  _81
REMARK   35  A    between atoms: _84  and  _86
REMARK   36  A    between atoms: _86  and  _87
REMARK   37  A    between atoms: _90  and  _92
REMARK   38  A    between atoms: _92  and  _93
REMARK   39  A    between atoms: _92  and  _95
REMARK   40  A    between atoms: _95  and  _96
REMARK   41  A    between atoms: _101  and  _103
REMARK   42  A    between atoms: _103  and  _104
REMARK   43  A    between atoms: _103  and  _106
REMARK   44  A    between atoms: _106  and  _107
REMARK   45  A    between atoms: _108  and  _110
REMARK   46  A    between atoms: _110  and  _111
REMARK   47  A    between atoms: _110  and  _113
REMARK   48  A    between atoms: _113  and  _114
REMARK   49  A    between atoms: _120  and  _122
REMARK   50  A    between atoms: _122  and  _123
REMARK   51  A    between atoms: _122  and  _125
REMARK   52  A    between atoms: _125  and  _126
REMARK   53  A    between atoms: _131  and  _132
REMARK   54  A    between atoms: _134  and  _136
REMARK   55  A    between atoms: _136  and  _137
REMARK   56  A    between atoms: _136  and  _139
REMARK   57  A    between atoms: _142  and  _144
REMARK   58  A    between atoms: _144  and  _145
REMARK   59  A    between atoms: _148  and  _150
REMARK   60  A    between atoms: _150  and  _151
REMARK   61  A    between atoms: _150  and  _153
REMARK   62  A    between atoms: _153  and  _154
REMARK   63  A    between atoms: _157  and  _159
REMARK   64  A    between atoms: _159  and  _160
REMARK   65  A    between atoms: _159  and  _162
REMARK   66  A    between atoms: _165  and  _167
REMARK   67  A    between atoms: _167  and  _168
REMARK   68  A    between atoms: _167  and  _170
REMARK   69  A    between atoms: _170  and  _171
REMARK   70  A    between atoms: _181  and  _183
REMARK   71  A    between atoms: _183  and  _184
REMARK   72  A    between atoms: _186  and  _188
REMARK   73  A    between atoms: _188  and  _189
REMARK   74  A    between atoms: _188  and  _191
REMARK   75  A    between atoms: _191  and  _192
REMARK   76  A    between atoms: _197  and  _198
REMARK   77  A    between atoms: _200  and  _202
REMARK   78  A    between atoms: _202  and  _203
REMARK   79  A    between atoms: _202  and  _205
REMARK   80  A    between atoms: _205  and  _206
REMARK   81  A    between atoms: _206  and  _207
REMARK   82  A    between atoms: _207  and  _208
REMARK   83  A    between atoms: _208  and  _209
REMARK   84  A    between atoms: _213  and  _215
REMARK   85  A    between atoms: _215  and  _216
REMARK   86  A    between atoms: _215  and  _218
REMARK   87  A    between atoms: _218  and  _219
REMARK   88  A    between atoms: _222  and  _224
REMARK   89  A    between atoms: _224  and  _225
REMARK   90  A    between atoms: _224  and  _227
REMARK   91  A    between atoms: _227  and  _228
REMARK   92  A    between atoms: _231  and  _233
REMARK   93  A    between atoms: _233  and  _234
REMARK   94  A    between atoms: _233  and  _236
REMARK   95  A    between atoms: _236  and  _237
REMARK   96  A    between atoms: _237  and  _238
REMARK   97  A    between atoms: _238  and  _239
REMARK   98  A    between atoms: _239  and  _240
REMARK   99  A    between atoms: _244  and  _246
REMARK  100  A    between atoms: _246  and  _247
REMARK  101  A    between atoms: _246  and  _249
REMARK  102  A    between atoms: _249  and  _250
REMARK  103  A    between atoms: _253  and  _255
REMARK  104  A    between atoms: _255  and  _256
REMARK  105  A    between atoms: _255  and  _258
REMARK  106  A    between atoms: _258  and  _259
REMARK  107  A    between atoms: _264  and  _265
REMARK  108  A    between atoms: _267  and  _269
REMARK  109  A    between atoms: _269  and  _270
REMARK  110  A    between atoms: _269  and  _272
REMARK  111  A    between atoms: _272  and  _273
REMARK  112  A    between atoms: _276  and  _278
REMARK  113  A    between atoms: _278  and  _279
REMARK  114  A    between atoms: _278  and  _281
REMARK  115  A    between atoms: _283  and  _285
REMARK  116  A    between atoms: _285  and  _286
REMARK  117  A    between atoms: _289  and  _291
REMARK  118  A    between atoms: _291  and  _292
REMARK  119  A    between atoms: _291  and  _294
REMARK  120  A    between atoms: _294  and  _295
REMARK  121  A    between atoms: _295  and  _296
REMARK  122  A    between atoms: _296  and  _297
REMARK  123  A    between atoms: _297  and  _298
REMARK  124  A    between atoms: _302  and  _304
REMARK  125  A    between atoms: _304  and  _305
REMARK  126  A    between atoms: _304  and  _307
REMARK  127  A    between atoms: _307  and  _308
REMARK  128  A    between atoms: _311  and  _313
REMARK  129  A    between atoms: _313  and  _314
REMARK  130  A    between atoms: _317  and  _319
REMARK  131  A    between atoms: _319  and  _320
REMARK  132  A    between atoms: _319  and  _322
REMARK  133  A    between atoms: _322  and  _323
REMARK  134  A    between atoms: _323  and  _437
REMARK  135  A    between atoms: _324  and  _326
REMARK  136  A    between atoms: _326  and  _327
REMARK  137  A    between atoms: _326  and  _329
REMARK  138  A    between atoms: _329  and  _330
REMARK  139  A    between atoms: _330  and  _331
REMARK  140  A    between atoms: _331  and  _332
REMARK  141  A    between atoms: _332  and  _333
REMARK  142  A    between atoms: _337  and  _339
REMARK  143  A    between atoms: _339  and  _340
REMARK  144  A    between atoms: _342  and  _344
REMARK  145  A    between atoms: _344  and  _345
REMARK  146  A    between atoms: _344  and  _347
REMARK  147  A    between atoms: _347  and  _348
REMARK  148  A    between atoms: _351  and  _353
REMARK  149  A    between atoms: _353  and  _354
REMARK  150  A    between atoms: _353  and  _356
REMARK  151  A    between atoms: _356  and  _357
REMARK  152  A    between atoms: _359  and  _361
REMARK  153  A    between atoms: _361  and  _362
REMARK  154  A    between atoms: _364  and  _366
REMARK  155  A    between atoms: _366  and  _367
REMARK  156  A    between atoms: _369  and  _371
REMARK  157  A    between atoms: _371  and  _372
REMARK  158  A    between atoms: _371  and  _374
REMARK  159  A    between atoms: _374  and  _375
REMARK  160  A    between atoms: _378  and  _380
REMARK  161  A    between atoms: _380  and  _381
REMARK  162  A    between atoms: _380  and  _383
REMARK  163  A    between atoms: _383  and  _384
REMARK  164  A    between atoms: _387  and  _389
REMARK  165  A    between atoms: _389  and  _390
REMARK  166  A    between atoms: _389  and  _392
REMARK  167  A    between atoms: _392  and  _393
REMARK  168  A    between atoms: _395  and  _397
REMARK  169  A    between atoms: _397  and  _398
REMARK  170  A    between atoms: _397  and  _400
REMARK  171  A    between atoms: _400  and  _401
REMARK  172  A    between atoms: _411  and  _413
REMARK  173  A    between atoms: _413  and  _414
REMARK  174  A    between atoms: _416  and  _418
REMARK  175  A    between atoms: _418  and  _419
REMARK  176  A    between atoms: _418  and  _421
REMARK  177  A    between atoms: _421  and  _422
REMARK  178  A    between atoms: _422  and  _423
REMARK  179  A    between atoms: _426  and  _428
REMARK  180  A    between atoms: _428  and  _429
REMARK  181  A    between atoms: _431  and  _433
REMARK  182  A    between atoms: _433  and  _434
REMARK  183  A    between atoms: _433  and  _436
REMARK  184  A    between atoms: _436  and  _437
REMARK  185  A    between atoms: _438  and  _440
REMARK  186  A    between atoms: _440  and  _441
REMARK  187  A    between atoms: _444  and  _446
REMARK  188  A    between atoms: _446  and  _447
REMARK  189  A    between atoms: _446  and  _449
REMARK  190  A    between atoms: _449  and  _450
REMARK  191  A    between atoms: _450  and  _451
REMARK  192  A    between atoms: _456  and  _458
REMARK  193  A    between atoms: _458  and  _459
REMARK  194  A    between atoms: _458  and  _461
REMARK  195  A    between atoms: _461  and  _462
REMARK  196  A    between atoms: _462  and  _463
REMARK  197  A    between atoms: _463  and  _464
REMARK  198  A    between atoms: _474  and  _475
REMARK  199  A    between atoms: _480  and  _482
REMARK  200  A    between atoms: _482  and  _483
REMARK  201  A    between atoms: _485  and  _487
REMARK  202  A    between atoms: _487  and  _488
REMARK  203  A    between atoms: _487  and  _490
REMARK  204  A    between atoms: _493  and  _495
REMARK  205  A    between atoms: _495  and  _496
REMARK  206  A    between atoms: _495  and  _498
REMARK  207  A    between atoms: _498  and  _499
REMARK  208  A    between atoms: _504  and  _505
REMARK  209  A    between atoms: _507  and  _509
REMARK  210  A    between atoms: _509  and  _510
REMARK  211  A    between atoms: _509  and  _512
REMARK  212  A    between atoms: _512  and  _513
REMARK                            x       y       z     vdW  Elec       q    Type
REMARK                         _______ _______ _______ _____ _____    ______ ____
ROOT
ATOM      1  O   HOH     1      50.516 -21.584  34.818  0.00  0.00    +0.000 OA
ENDROOT
TORSDOF 0
REMARK  Name = ../refined-set-2016/5e2o/5e2o_pocket.pdb
REMARK  212 active torsions:
REMARK  status: ('A' for Active; 'I' for Inactive)
REMARK    1  A    between atoms: _1  and  _5
REMARK    2  A    between atoms: _5  and  _6
REMARK    3  A    between atoms: _5  and  _8
REMARK    4  A    between atoms: _8  and  _9
REMARK    5  A    between atoms: _12  and  _14
REMARK    6  A    between atoms: _14  and  _15
REMARK    7  A    between atoms: _14  and  _17
REMARK    8  A    between atoms: _20  and  _22
REMARK    9  A    between atoms: _22  and  _23
REMARK   10  A    between atoms: _22  and  _25
REMARK   11  A    between atoms: _25  and  _26
REMARK   12  A    between atoms: _29  and  _31
REMARK   13  A    between atoms: _31  and  _32
REMARK   14  A    between atoms: _31  and  _34
REMARK   15  A    between atoms: _34  and  _35
REMARK   16  A    between atoms: _35  and  _36
REMARK   17  A    between atoms: _36  and  _37
REMARK   18  A    between atoms: _46  and  _48
REMARK   19  A    between atoms: _48  and  _49
REMARK   20  A    between atoms: _48  and  _51
REMARK   21  A    between atoms: _51  and  _52
REMARK   22  A    between atoms: _57  and  _59
REMARK   23  A    between atoms: _59  and  _60
REMARK   24  A    between atoms: _59  and  _62
REMARK   25  A    between atoms: _62  and  _63
REMARK   26  A    between atoms: _66  and  _68
REMARK   27  A    between atoms: _68  and  _69
REMARK   28  A    between atoms: _68  and  _71
REMARK   29  A    between atoms: _71  and  _72
REMARK   30  A    between atoms: _72  and  _107
REMARK   31  A    between atoms: _73  and  _75
REMARK   32  A    between atoms: _75  and  _76
REMARK   33  A    between atoms: _78  and  _80
REMARK   34  A    between atoms: _80  and  _81
REMARK   35  A    between atoms: _84  and  _86
REMARK   36  A    between atoms: _86  and  _87
REMARK   37  A    between atoms: _90  and  _92
REMARK   38  A    between atoms: _92  and  _93
REMARK   39  A    between atoms: _92  and  _95
REMARK   40  A    between atoms: _95  and  _96
REMARK   41  A    between atoms: _101  and  _103
REMARK   42  A    between atoms: _103  and  _104
REMARK   43  A    between atoms: _103  and  _106
REMARK   44  A    between atoms: _106  and  _107
REMARK   45  A    between atoms: _108  and  _110
REMARK   46  A    between atoms: _110  and  _111
REMARK   47  A    between atoms: _110  and  _113
REMARK   48  A    between atoms: _113  and  _114
REMARK   49  A    between atoms: _120  and  _122
REMARK   50  A    between atoms: _122  and  _123
REMARK   51  A    between atoms: _122  and  _125
REMARK   52  A    between atoms: _125  and  _126
REMARK   53  A    between atoms: _131  and  _132
REMARK   54  A    between atoms: _134  and  _136
REMARK   55  A    between atoms: _136  and  _137
REMARK   56  A    between atoms: _136  and  _139
REMARK   57  A    between atoms: _142  and  _144
REMARK   58  A    between atoms: _144  and  _145
REMARK   59  A    between atoms: _148  and  _150
REMARK   60  A    between atoms: _150  and  _151
REMARK   61  A    between atoms: _150  and  _153
REMARK   62  A    between atoms: _153  and  _154
REMARK   63  A    between atoms: _157  and  _159
REMARK   64  A    between atoms: _159  and  _160
REMARK   65  A    between atoms: _159  and  _162
REMARK   66  A    between atoms: _165  and  _167
REMARK   67  A    between atoms: _167  and  _168
REMARK   68  A    between atoms: _167  and  _170
REMARK   69  A    between atoms: _170  and  _171
REMARK   70  A    between atoms: _181  and  _183
REMARK   71  A    between atoms: _183  and  _184
REMARK   72  A    between atoms: _186  and  _188
REMARK   73  A    between atoms: _188  and  _189
REMARK   74  A    between atoms: _188  and  _191
REMARK   75  A    between atoms: _191  and  _192
REMARK   76  A    between atoms: _197  and  _198
REMARK   77  A    between atoms: _200  and  _202
REMARK   78  A    between atoms: _202  and  _203
REMARK   79  A    between atoms: _202  and  _205
REMARK   80  A    between atoms: _205  and  _206
REMARK   81  A    between atoms: _206  and  _207
REMARK   82  A    between atoms: _207  and  _208
REMARK   83  A    between atoms: _208  and  _209
REMARK   84  A    between atoms: _213  and  _215
REMARK   85  A    between atoms: _215  and  _216
REMARK   86  A    between atoms: _215  and  _218
REMARK   87  A    between atoms: _218  and  _219
REMARK   88  A    between atoms: _222  and  _224
REMARK   89  A    between atoms: _224  and  _225
REMARK   90  A    between atoms: _224  and  _227
REMARK   91  A    between atoms: _227  and  _228
REMARK   92  A    between atoms: _231  and  _233
REMARK   93  A    between atoms: _233  and  _234
REMARK   94  A    between atoms: _233  and  _236
REMARK   95  A    between atoms: _236  and  _237
REMARK   96  A    between atoms: _237  and  _238
REMARK   97  A    between atoms: _238  and  _239
REMARK   98  A    between atoms: _239  and  _240
REMARK   99  A    between atoms: _244  and  _246
REMARK  100  A    between atoms: _246  and  _247
REMARK  101  A    between atoms: _246  and  _249
REMARK  102  A    between atoms: _249  and  _250
REMARK  103  A    between atoms: _253  and  _255
REMARK  104  A    between atoms: _255  and  _256
REMARK  105  A    between atoms: _255  and  _258
REMARK  106  A    between atoms: _258  and  _259
REMARK  107  A    between atoms: _264  and  _265
REMARK  108  A    between atoms: _267  and  _269
REMARK  109  A    between atoms: _269  and  _270
REMARK  110  A    between atoms: _269  and  _272
REMARK  111  A    between atoms: _272  and  _273
REMARK  112  A    between atoms: _276  and  _278
REMARK  113  A    between atoms: _278  and  _279
REMARK  114  A    between atoms: _278  and  _281
REMARK  115  A    between atoms: _283  and  _285
REMARK  116  A    between atoms: _285  and  _286
REMARK  117  A    between atoms: _289  and  _291
REMARK  118  A    between atoms: _291  and  _292
REMARK  119  A    between atoms: _291  and  _294
REMARK  120  A    between atoms: _294  and  _295
REMARK  121  A    between atoms: _295  and  _296
REMARK  122  A    between atoms: _296  and  _297
REMARK  123  A    between atoms: _297  and  _298
REMARK  124  A    between atoms: _302  and  _304
REMARK  125  A    between atoms: _304  and  _305
REMARK  126  A    between atoms: _304  and  _307
REMARK  127  A    between atoms: _307  and  _308
REMARK  128  A    between atoms: _311  and  _313
REMARK  129  A    between atoms: _313  and  _314
REMARK  130  A    between atoms: _317  and  _319
REMARK  131  A    between atoms: _319  and  _320
REMARK  132  A    between atoms: _319  and  _322
REMARK  133  A    between atoms: _322  and  _323
REMARK  134  A    between atoms: _323  and  _437
REMARK  135  A    between atoms: _324  and  _326
REMARK  136  A    between atoms: _326  and  _327
REMARK  137  A    between atoms: _326  and  _329
REMARK  138  A    between atoms: _329  and  _330
REMARK  139  A    between atoms: _330  and  _331
REMARK  140  A    between atoms: _331  and  _332
REMARK  141  A    between atoms: _332  and  _333
REMARK  142  A    between atoms: _337  and  _339
REMARK  143  A    between atoms: _339  and  _340
REMARK  144  A    between atoms: _342  and  _344
REMARK  145  A    between atoms: _344  and  _345
REMARK  146  A    between atoms: _344  and  _347
REMARK  147  A    between atoms: _347  and  _348
REMARK  148  A    between atoms: _351  and  _353
REMARK  149  A    between atoms: _353  and  _354
REMARK  150  A    between atoms: _353  and  _356
REMARK  151  A    between atoms: _356  and  _357
REMARK  152  A    between atoms: _359  and  _361
REMARK  153  A    between atoms: _361  and  _362
REMARK  154  A    between atoms: _364  and  _366
REMARK  155  A    between atoms: _366  and  _367
REMARK  156  A    between atoms: _369  and  _371
REMARK  157  A    between atoms: _371  and  _372
REMARK  158  A    between atoms: _371  and  _374
REMARK  159  A    between atoms: _374  and  _375
REMARK  160  A    between atoms: _378  and  _380
REMARK  161  A    between atoms: _380  and  _381
REMARK  162  A    between atoms: _380  and  _383
REMARK  163  A    between atoms: _383  and  _384
REMARK  164  A    between atoms: _387  and  _389
REMARK  165  A    between atoms: _389  and  _390
REMARK  166  A    between atoms: _389  and  _392
REMARK  167  A    between atoms: _392  and  _393
REMARK  168  A    between atoms: _395  and  _397
REMARK  169  A    between atoms: _397  and  _398
REMARK  170  A    between atoms: _397  and  _400
REMARK  171  A    between atoms: _400  and  _401
REMARK  172  A    between atoms: _411  and  _413
REMARK  173  A    between atoms: _413  and  _414
REMARK  174  A    between atoms: _416  and  _418
REMARK  175  A    between atoms: _418  and  _419
REMARK  176  A    between atoms: _418  and  _421
REMARK  177  A    between atoms: _421  and  _422
REMARK  178  A    between atoms: _422  and  _423
REMARK  179  A    between atoms: _426  and  _428
REMARK  180  A    between atoms: _428  and  _429
REMARK  181  A    between atoms: _431  and  _433
REMARK  182  A    between atoms: _433  and  _434
REMARK  183  A    between atoms: _433  and  _436
REMARK  184  A    between atoms: _436  and  _437
REMARK  185  A    between atoms: _438  and  _440
REMARK  186  A    between atoms: _440  and  _441
REMARK  187  A    between atoms: _444  and  _446
REMARK  188  A    between atoms: _446  and  _447
REMARK  189  A    between atoms: _446  and  _449
REMARK  190  A    between atoms: _449  and  _450
REMARK  191  A    between atoms: _450  and  _451
REMARK  192  A    between atoms: _456  and  _458
REMARK  193  A    between atoms: _458  and  _459
REMARK  194  A    between atoms: _458  and  _461
REMARK  195  A    between atoms: _461  and  _462
REMARK  196  A    between atoms: _462  and  _463
REMARK  197  A    between atoms: _463  and  _464
REMARK  198  A    between atoms: _474  and  _475
REMARK  199  A    between atoms: _480  and  _482
REMARK  200  A    between atoms: _482  and  _483
REMARK  201  A    between atoms: _485  and  _487
REMARK  202  A    between atoms: _487  and  _488
REMARK  203  A    between atoms: _487  and  _490
REMARK  204  A    between atoms: _493  and  _495
REMARK  205  A    between atoms: _495  and  _496
REMARK  206  A    between atoms: _495  and  _498
REMARK  207  A    between atoms: _498  and  _499
REMARK  208  A    between atoms: _504  and  _505
REMARK  209  A    between atoms: _507  and  _509
REMARK  210  A    between atoms: _509  and  _510
REMARK  211  A    between atoms: _509  and  _512
REMARK  212  A    between atoms: _512  and  _513
REMARK                            x       y       z     vdW  Elec       q    Type
REMARK                         _______ _______ _______ _____ _____    ______ ____
ROOT
ATOM      1  O   HOH     1      46.346 -15.020  21.412  0.00  0.00    +0.000 OA
ENDROOT
TORSDOF 0
REMARK  Name = ../refined-set-2016/5e2o/5e2o_pocket.pdb
REMARK  212 active torsions:
REMARK  status: ('A' for Active; 'I' for Inactive)
REMARK    1  A    between atoms: _1  and  _5
REMARK    2  A    between atoms: _5  and  _6
REMARK    3  A    between atoms: _5  and  _8
REMARK    4  A    between atoms: _8  and  _9
REMARK    5  A    between atoms: _12  and  _14
REMARK    6  A    between atoms: _14  and  _15
REMARK    7  A    between atoms: _14  and  _17
REMARK    8  A    between atoms: _20  and  _22
REMARK    9  A    between atoms: _22  and  _23
REMARK   10  A    between atoms: _22  and  _25
REMARK   11  A    between atoms: _25  and  _26
REMARK   12  A    between atoms: _29  and  _31
REMARK   13  A    between atoms: _31  and  _32
REMARK   14  A    between atoms: _31  and  _34
REMARK   15  A    between atoms: _34  and  _35
REMARK   16  A    between atoms: _35  and  _36
REMARK   17  A    between atoms: _36  and  _37
REMARK   18  A    between atoms: _46  and  _48
REMARK   19  A    between atoms: _48  and  _49
REMARK   20  A    between atoms: _48  and  _51
REMARK   21  A    between atoms: _51  and  _52
REMARK   22  A    between atoms: _57  and  _59
REMARK   23  A    between atoms: _59  and  _60
REMARK   24  A    between atoms: _59  and  _62
REMARK   25  A    between atoms: _62  and  _63
REMARK   26  A    between atoms: _66  and  _68
REMARK   27  A    between atoms: _68  and  _69
REMARK   28  A    between atoms: _68  and  _71
REMARK   29  A    between atoms: _71  and  _72
REMARK   30  A    between atoms: _72  and  _107
REMARK   31  A    between atoms: _73  and  _75
REMARK   32  A    between atoms: _75  and  _76
REMARK   33  A    between atoms: _78  and  _80
REMARK   34  A    between atoms: _80  and  _81
REMARK   35  A    between atoms: _84  and  _86
REMARK   36  A    between atoms: _86  and  _87
REMARK   37  A    between atoms: _90  and  _92
REMARK   38  A    between atoms: _92  and  _93
REMARK   39  A    between atoms: _92  and  _95
REMARK   40  A    between atoms: _95  and  _96
REMARK   41  A    between atoms: _101  and  _103
REMARK   42  A    between atoms: _103  and  _104
REMARK   43  A    between atoms: _103  and  _106
REMARK   44  A    between atoms: _106  and  _107
REMARK   45  A    between atoms: _108  and  _110
REMARK   46  A    between atoms: _110  and  _111
REMARK   47  A    between atoms: _110  and  _113
REMARK   48  A    between atoms: _113  and  _114
REMARK   49  A    between atoms: _120  and  _122
REMARK   50  A    between atoms: _122  and  _123
REMARK   51  A    between atoms: _122  and  _125
REMARK   52  A    between atoms: _125  and  _126
REMARK   53  A    between atoms: _131  and  _132
REMARK   54  A    between atoms: _134  and  _136
REMARK   55  A    between atoms: _136  and  _137
REMARK   56  A    between atoms: _136  and  _139
REMARK   57  A    between atoms: _142  and  _144
REMARK   58  A    between atoms: _144  and  _145
REMARK   59  A    between atoms: _148  and  _150
REMARK   60  A    between atoms: _150  and  _151
REMARK   61  A    between atoms: _150  and  _153
REMARK   62  A    between atoms: _153  and  _154
REMARK   63  A    between atoms: _157  and  _159
REMARK   64  A    between atoms: _159  and  _160
REMARK   65  A    between atoms: _159  and  _162
REMARK   66  A    between atoms: _165  and  _167
REMARK   67  A    between atoms: _167  and  _168
REMARK   68  A    between atoms: _167  and  _170
REMARK   69  A    between atoms: _170  and  _171
REMARK   70  A    between atoms: _181  and  _183
REMARK   71  A    between atoms: _183  and  _184
REMARK   72  A    between atoms: _186  and  _188
REMARK   73  A    between atoms: _188  and  _189
REMARK   74  A    between atoms: _188  and  _191
REMARK   75  A    between atoms: _191  and  _192
REMARK   76  A    between atoms: _197  and  _198
REMARK   77  A    between atoms: _200  and  _202
REMARK   78  A    between atoms: _202  and  _203
REMARK   79  A    between atoms: _202  and  _205
REMARK   80  A    between atoms: _205  and  _206
REMARK   81  A    between atoms: _206  and  _207
REMARK   82  A    between atoms: _207  and  _208
REMARK   83  A    between atoms: _208  and  _209
REMARK   84  A    between atoms: _213  and  _215
REMARK   85  A    between atoms: _215  and  _216
REMARK   86  A    between atoms: _215  and  _218
REMARK   87  A    between atoms: _218  and  _219
REMARK   88  A    between atoms: _222  and  _224
REMARK   89  A    between atoms: _224  and  _225
REMARK   90  A    between atoms: _224  and  _227
REMARK   91  A    between atoms: _227  and  _228
REMARK   92  A    between atoms: _231  and  _233
REMARK   93  A    between atoms: _233  and  _234
REMARK   94  A    between atoms: _233  and  _236
REMARK   95  A    between atoms: _236  and  _237
REMARK   96  A    between atoms: _237  and  _238
REMARK   97  A    between atoms: _238  and  _239
REMARK   98  A    between atoms: _239  and  _240
REMARK   99  A    between atoms: _244  and  _246
REMARK  100  A    between atoms: _246  and  _247
REMARK  101  A    between atoms: _246  and  _249
REMARK  102  A    between atoms: _249  and  _250
REMARK  103  A    between atoms: _253  and  _255
REMARK  104  A    between atoms: _255  and  _256
REMARK  105  A    between atoms: _255  and  _258
REMARK  106  A    between atoms: _258  and  _259
REMARK  107  A    between atoms: _264  and  _265
REMARK  108  A    between atoms: _267  and  _269
REMARK  109  A    between atoms: _269  and  _270
REMARK  110  A    between atoms: _269  and  _272
REMARK  111  A    between atoms: _272  and  _273
REMARK  112  A    between atoms: _276  and  _278
REMARK  113  A    between atoms: _278  and  _279
REMARK  114  A    between atoms: _278  and  _281
REMARK  115  A    between atoms: _283  and  _285
REMARK  116  A    between atoms: _285  and  _286
REMARK  117  A    between atoms: _289  and  _291
REMARK  118  A    between atoms: _291  and  _292
REMARK  119  A    between atoms: _291  and  _294
REMARK  120  A    between atoms: _294  and  _295
REMARK  121  A    between atoms: _295  and  _296
REMARK  122  A    between atoms: _296  and  _297
REMARK  123  A    between atoms: _297  and  _298
REMARK  124  A    between atoms: _302  and  _304
REMARK  125  A    between atoms: _304  and  _305
REMARK  126  A    between atoms: _304  and  _307
REMARK  127  A    between atoms: _307  and  _308
REMARK  128  A    between atoms: _311  and  _313
REMARK  129  A    between atoms: _313  and  _314
REMARK  130  A    between atoms: _317  and  _319
REMARK  131  A    between atoms: _319  and  _320
REMARK  132  A    between atoms: _319  and  _322
REMARK  133  A    between atoms: _322  and  _323
REMARK  134  A    between atoms: _323  and  _437
REMARK  135  A    between atoms: _324  and  _326
REMARK  136  A    between atoms: _326  and  _327
REMARK  137  A    between atoms: _326  and  _329
REMARK  138  A    between atoms: _329  and  _330
REMARK  139  A    between atoms: _330  and  _331
REMARK  140  A    between atoms: _331  and  _332
REMARK  141  A    between atoms: _332  and  _333
REMARK  142  A    between atoms: _337  and  _339
REMARK  143  A    between atoms: _339  and  _340
REMARK  144  A    between atoms: _342  and  _344
REMARK  145  A    between atoms: _344  and  _345
REMARK  146  A    between atoms: _344  and  _347
REMARK  147  A    between atoms: _347  and  _348
REMARK  148  A    between atoms: _351  and  _353
REMARK  149  A    between atoms: _353  and  _354
REMARK  150  A    between atoms: _353  and  _356
REMARK  151  A    between atoms: _356  and  _357
REMARK  152  A    between atoms: _359  and  _361
REMARK  153  A    between atoms: _361  and  _362
REMARK  154  A    between atoms: _364  and  _366
REMARK  155  A    between atoms: _366  and  _367
REMARK  156  A    between atoms: _369  and  _371
REMARK  157  A    between atoms: _371  and  _372
REMARK  158  A    between atoms: _371  and  _374
REMARK  159  A    between atoms: _374  and  _375
REMARK  160  A    between atoms: _378  and  _380
REMARK  161  A    between atoms: _380  and  _381
REMARK  162  A    between atoms: _380  and  _383
REMARK  163  A    between atoms: _383  and  _384
REMARK  164  A    between atoms: _387  and  _389
REMARK  165  A    between atoms: _389  and  _390
REMARK  166  A    between atoms: _389  and  _392
REMARK  167  A    between atoms: _392  and  _393
REMARK  168  A    between atoms: _395  and  _397
REMARK  169  A    between atoms: _397  and  _398
REMARK  170  A    between atoms: _397  and  _400
REMARK  171  A    between atoms: _400  and  _401
REMARK  172  A    between atoms: _411  and  _413
REMARK  173  A    between atoms: _413  and  _414
REMARK  174  A    between atoms: _416  and  _418
REMARK  175  A    between atoms: _418  and  _419
REMARK  176  A    between atoms: _418  and  _421
REMARK  177  A    between atoms: _421  and  _422
REMARK  178  A    between atoms: _422  and  _423
REMARK  179  A    between atoms: _426  and  _428
REMARK  180  A    between atoms: _428  and  _429
REMARK  181  A    between atoms: _431  and  _433
REMARK  182  A    between atoms: _433  and  _434
REMARK  183  A    between atoms: _433  and  _436
REMARK  184  A    between atoms: _436  and  _437
REMARK  185  A    between atoms: _438  and  _440
REMARK  186  A    between atoms: _440  and  _441
REMARK  187  A    between atoms: _444  and  _446
REMARK  188  A    between atoms: _446  and  _447
REMARK  189  A    between atoms: _446  and  _449
REMARK  190  A    between atoms: _449  and  _450
REMARK  191  A    between atoms: _450  and  _451
REMARK  192  A    between atoms: _456  and  _458
REMARK  193  A    between atoms: _458  and  _459
REMARK  194  A    between atoms: _458  and  _461
REMARK  195  A    between atoms: _461  and  _462
REMARK  196  A    between atoms: _462  and  _463
REMARK  197  A    between atoms: _463  and  _464
REMARK  198  A    between atoms: _474  and  _475
REMARK  199  A    between atoms: _480  and  _482
REMARK  200  A    between atoms: _482  and  _483
REMARK  201  A    between atoms: _485  and  _487
REMARK  202  A    between atoms: _487  and  _488
REMARK  203  A    between atoms: _487  and  _490
REMARK  204  A    between atoms: _493  and  _495
REMARK  205  A    between atoms: _495  and  _496
REMARK  206  A    between atoms: _495  and  _498
REMARK  207  A    between atoms: _498  and  _499
REMARK  208  A    between atoms: _504  and  _505
REMARK  209  A    between atoms: _507  and  _509
REMARK  210  A    between atoms: _509  and  _510
REMARK  211  A    between atoms: _509  and  _512
REMARK  212  A    between atoms: _512  and  _513
REMARK                            x       y       z     vdW  Elec       q    Type
REMARK                         _______ _______ _______ _____ _____    ______ ____
ROOT
ATOM      1  O   HOH     1      36.563 -21.873  25.033  0.00  0.00    +0.000 OA
ENDROOT
TORSDOF 0
