REMARK  Name = ../refined-set-2016/3nkk/3nkk_pocket.pdb
REMARK  145 active torsions:
REMARK  status: ('A' for Active; 'I' for Inactive)
REMARK    1  A    between atoms: _1  and  _5
REMARK    2  A    between atoms: _5  and  _6
REMARK    3  A    between atoms: _5  and  _8
REMARK    4  A    between atoms: _8  and  _9
REMARK    5  A    between atoms: _12  and  _14
REMARK    6  A    between atoms: _14  and  _15
REMARK    7  A    between atoms: _14  and  _17
REMARK    8  A    between atoms: _20  and  _22
REMARK    9  A    between atoms: _22  and  _23
REMARK   10  A    between atoms: _22  and  _25
REMARK   11  A    between atoms: _25  and  _26
REMARK   12  A    between atoms: _26  and  _50
REMARK   13  A    between atoms: _27  and  _29
REMARK   14  A    between atoms: _29  and  _30
REMARK   15  A    between atoms: _33  and  _35
REMARK   16  A    between atoms: _35  and  _36
REMARK   17  A    between atoms: _35  and  _38
REMARK   18  A    between atoms: _38  and  _39
REMARK   19  A    between atoms: _44  and  _46
REMARK   20  A    between atoms: _46  and  _47
REMARK   21  A    between atoms: _46  and  _49
REMARK   22  A    between atoms: _49  and  _50
REMARK   23  A    between atoms: _51  and  _53
REMARK   24  A    between atoms: _53  and  _54
REMARK   25  A    between atoms: _53  and  _56
REMARK   26  A    between atoms: _56  and  _57
REMARK   27  A    between atoms: _60  and  _62
REMARK   28  A    between atoms: _62  and  _63
REMARK   29  A    between atoms: _62  and  _65
REMARK   30  A    between atoms: _65  and  _66
REMARK   31  A    between atoms: _69  and  _71
REMARK   32  A    between atoms: _71  and  _72
REMARK   33  A    between atoms: _71  and  _74
REMARK   34  A    between atoms: _74  and  _75
REMARK   35  A    between atoms: _78  and  _80
REMARK   36  A    between atoms: _80  and  _81
REMARK   37  A    between atoms: _80  and  _83
REMARK   38  A    between atoms: _83  and  _84
REMARK   39  A    between atoms: _89  and  _91
REMARK   40  A    between atoms: _91  and  _92
REMARK   41  A    between atoms: _91  and  _94
REMARK   42  A    between atoms: _94  and  _95
REMARK   43  A    between atoms: _100  and  _101
REMARK   44  A    between atoms: _103  and  _105
REMARK   45  A    between atoms: _105  and  _106
REMARK   46  A    between atoms: _105  and  _108
REMARK   47  A    between atoms: _108  and  _109
REMARK   48  A    between atoms: _114  and  _115
REMARK   49  A    between atoms: _117  and  _119
REMARK   50  A    between atoms: _119  and  _120
REMARK   51  A    between atoms: _123  and  _125
REMARK   52  A    between atoms: _125  and  _126
REMARK   53  A    between atoms: _125  and  _128
REMARK   54  A    between atoms: _128  and  _129
REMARK   55  A    between atoms: _129  and  _130
REMARK   56  A    between atoms: _130  and  _131
REMARK   57  A    between atoms: _131  and  _132
REMARK   58  A    between atoms: _136  and  _138
REMARK   59  A    between atoms: _138  and  _139
REMARK   60  A    between atoms: _138  and  _141
REMARK   61  A    between atoms: _141  and  _142
REMARK   62  A    between atoms: _145  and  _147
REMARK   63  A    between atoms: _147  and  _148
REMARK   64  A    between atoms: _147  and  _150
REMARK   65  A    between atoms: _150  and  _151
REMARK   66  A    between atoms: _153  and  _155
REMARK   67  A    between atoms: _155  and  _156
REMARK   68  A    between atoms: _155  and  _158
REMARK   69  A    between atoms: _158  and  _159
REMARK   70  A    between atoms: _159  and  _269
REMARK   71  A    between atoms: _160  and  _162
REMARK   72  A    between atoms: _162  and  _163
REMARK   73  A    between atoms: _162  and  _165
REMARK   74  A    between atoms: _165  and  _166
REMARK   75  A    between atoms: _166  and  _167
REMARK   76  A    between atoms: _172  and  _174
REMARK   77  A    between atoms: _174  and  _175
REMARK   78  A    between atoms: _177  and  _179
REMARK   79  A    between atoms: _179  and  _180
REMARK   80  A    between atoms: _179  and  _182
REMARK   81  A    between atoms: _182  and  _183
REMARK   82  A    between atoms: _186  and  _188
REMARK   83  A    between atoms: _188  and  _189
REMARK   84  A    between atoms: _188  and  _191
REMARK   85  A    between atoms: _191  and  _192
REMARK   86  A    between atoms: _194  and  _196
REMARK   87  A    between atoms: _196  and  _197
REMARK   88  A    between atoms: _199  and  _201
REMARK   89  A    between atoms: _201  and  _202
REMARK   90  A    between atoms: _204  and  _206
REMARK   91  A    between atoms: _206  and  _207
REMARK   92  A    between atoms: _206  and  _209
REMARK   93  A    between atoms: _209  and  _210
REMARK   94  A    between atoms: _213  and  _215
REMARK   95  A    between atoms: _215  and  _216
REMARK   96  A    between atoms: _215  and  _218
REMARK   97  A    between atoms: _221  and  _223
REMARK   98  A    between atoms: _223  and  _224
REMARK   99  A    between atoms: _223  and  _226
REMARK  100  A    between atoms: _226  and  _227
REMARK  101  A    between atoms: _229  and  _231
REMARK  102  A    between atoms: _231  and  _232
REMARK  103  A    between atoms: _231  and  _234
REMARK  104  A    between atoms: _234  and  _235
REMARK  105  A    between atoms: _245  and  _247
REMARK  106  A    between atoms: _247  and  _248
REMARK  107  A    between atoms: _250  and  _252
REMARK  108  A    between atoms: _252  and  _253
REMARK  109  A    between atoms: _252  and  _255
REMARK  110  A    between atoms: _255  and  _256
REMARK  111  A    between atoms: _258  and  _260
REMARK  112  A    between atoms: _260  and  _261
REMARK  113  A    between atoms: _263  and  _265
REMARK  114  A    between atoms: _265  and  _266
REMARK  115  A    between atoms: _265  and  _268
REMARK  116  A    between atoms: _268  and  _269
REMARK  117  A    between atoms: _270  and  _272
REMARK  118  A    between atoms: _272  and  _273
REMARK  119  A    between atoms: _276  and  _278
REMARK  120  A    between atoms: _278  and  _279
REMARK  121  A    between atoms: _278  and  _281
REMARK  122  A    between atoms: _281  and  _282
REMARK  123  A    between atoms: _282  and  _283
REMARK  124  A    between atoms: _288  and  _290
REMARK  125  A    between atoms: _290  and  _291
REMARK  126  A    between atoms: _290  and  _293
REMARK  127  A    between atoms: _293  and  _294
REMARK  128  A    between atoms: _294  and  _295
REMARK  129  A    between atoms: _295  and  _296
REMARK  130  A    between atoms: _296  and  _297
REMARK  131  A    between atoms: _302  and  _303
REMARK  132  A    between atoms: _308  and  _310
REMARK  133  A    between atoms: _310  and  _311
REMARK  134  A    between atoms: _313  and  _315
REMARK  135  A    between atoms: _315  and  _316
REMARK  136  A    between atoms: _315  and  _318
REMARK  137  A    between atoms: _321  and  _323
REMARK  138  A    between atoms: _323  and  _324
REMARK  139  A    between atoms: _323  and  _326
REMARK  140  A    between atoms: _326  and  _327
REMARK  141  A    between atoms: _332  and  _333
REMARK  142  A    between atoms: _335  and  _337
REMARK  143  A    between atoms: _337  and  _338
REMARK  144  A    between atoms: _337  and  _340
REMARK  145  A    between atoms: _340  and  _341
REMARK                            x       y       z     vdW  Elec       q    Type
REMARK                         _______ _______ _______ _____ _____    ______ ____
ROOT
ATOM      1  C   ILE A   1      36.538  20.160  17.988  0.00  0.00    +0.202 C 
ATOM      2  O   ILE A   1      37.630  20.273  18.545  0.00  0.00    -0.277 OA
ATOM      3  N   VAL A   2      36.390  19.813  16.712  0.00  0.00    -0.301 N 
ATOM      4  H   VAL A   2      35.426  19.684  16.343  0.00  0.00    +0.150 HD
ENDROOT
BRANCH   1   5
ATOM      5  CA  ILE A   1      35.260  20.400  18.770  0.00  0.00    +0.013 C 
BRANCH   5   6
ATOM      6  N   ILE A   1      35.240  19.492  19.947  0.00  0.00    +0.387 N 
ATOM      7  H1  ILE A   1      36.064  19.689  20.549  0.00  0.00    -0.089 HD
ATOM      8  H2  ILE A   1      34.367  19.649  20.490  0.00  0.00    -0.089 HD
ATOM      9  H3  ILE A   1      35.275  18.505  19.622  0.00  0.00    -0.089 HD
ENDBRANCH   5   6
BRANCH   5  10
ATOM     10  CB  ILE A   1      35.206  21.895  19.205  0.00  0.00    -0.011 C 
ATOM     11  CG2 ILE A   1      35.252  22.806  17.987  0.00  0.00    -0.002 C 
BRANCH  10  12
ATOM     12  CG1 ILE A   1      33.989  22.195  20.105  0.00  0.00    -0.002 C 
ATOM     13  CD1 ILE A   1      32.624  22.227  19.386  0.00  0.00    -0.000 C 
ENDBRANCH  10  12
ENDBRANCH   5  10
ENDBRANCH   1   5
BRANCH   3  14
ATOM     14  CA  VAL A   2      37.514  19.604  15.805  0.00  0.00    +0.137 C 
BRANCH  14  15
ATOM     15  CB  VAL A   2      37.285  18.363  14.910  0.00  0.00    +0.026 C 
ATOM     16  CG2 VAL A   2      37.130  17.116  15.766  0.00  0.00    +0.002 C 
ATOM     17  CG1 VAL A   2      38.432  18.179  13.932  0.00  0.00    +0.002 C 
ENDBRANCH  14  15
BRANCH  14  18
ATOM     18  C   VAL A   2      37.673  20.851  14.936  0.00  0.00    +0.227 C 
ATOM     19  O   VAL A   2      36.697  21.346  14.354  0.00  0.00    -0.286 OA
ENDBRANCH  14  18
ENDBRANCH   3  14
TORSDOF 7
REMARK  Name = ../refined-set-2016/3nkk/3nkk_pocket.pdb
REMARK  145 active torsions:
REMARK  status: ('A' for Active; 'I' for Inactive)
REMARK    1  A    between atoms: _1  and  _5
REMARK    2  A    between atoms: _5  and  _6
REMARK    3  A    between atoms: _5  and  _8
REMARK    4  A    between atoms: _8  and  _9
REMARK    5  A    between atoms: _12  and  _14
REMARK    6  A    between atoms: _14  and  _15
REMARK    7  A    between atoms: _14  and  _17
REMARK    8  A    between atoms: _20  and  _22
REMARK    9  A    between atoms: _22  and  _23
REMARK   10  A    between atoms: _22  and  _25
REMARK   11  A    between atoms: _25  and  _26
REMARK   12  A    between atoms: _26  and  _50
REMARK   13  A    between atoms: _27  and  _29
REMARK   14  A    between atoms: _29  and  _30
REMARK   15  A    between atoms: _33  and  _35
REMARK   16  A    between atoms: _35  and  _36
REMARK   17  A    between atoms: _35  and  _38
REMARK   18  A    between atoms: _38  and  _39
REMARK   19  A    between atoms: _44  and  _46
REMARK   20  A    between atoms: _46  and  _47
REMARK   21  A    between atoms: _46  and  _49
REMARK   22  A    between atoms: _49  and  _50
REMARK   23  A    between atoms: _51  and  _53
REMARK   24  A    between atoms: _53  and  _54
REMARK   25  A    between atoms: _53  and  _56
REMARK   26  A    between atoms: _56  and  _57
REMARK   27  A    between atoms: _60  and  _62
REMARK   28  A    between atoms: _62  and  _63
REMARK   29  A    between atoms: _62  and  _65
REMARK   30  A    between atoms: _65  and  _66
REMARK   31  A    between atoms: _69  and  _71
REMARK   32  A    between atoms: _71  and  _72
REMARK   33  A    between atoms: _71  and  _74
REMARK   34  A    between atoms: _74  and  _75
REMARK   35  A    between atoms: _78  and  _80
REMARK   36  A    between atoms: _80  and  _81
REMARK   37  A    between atoms: _80  and  _83
REMARK   38  A    between atoms: _83  and  _84
REMARK   39  A    between atoms: _89  and  _91
REMARK   40  A    between atoms: _91  and  _92
REMARK   41  A    between atoms: _91  and  _94
REMARK   42  A    between atoms: _94  and  _95
REMARK   43  A    between atoms: _100  and  _101
REMARK   44  A    between atoms: _103  and  _105
REMARK   45  A    between atoms: _105  and  _106
REMARK   46  A    between atoms: _105  and  _108
REMARK   47  A    between atoms: _108  and  _109
REMARK   48  A    between atoms: _114  and  _115
REMARK   49  A    between atoms: _117  and  _119
REMARK   50  A    between atoms: _119  and  _120
REMARK   51  A    between atoms: _123  and  _125
REMARK   52  A    between atoms: _125  and  _126
REMARK   53  A    between atoms: _125  and  _128
REMARK   54  A    between atoms: _128  and  _129
REMARK   55  A    between atoms: _129  and  _130
REMARK   56  A    between atoms: _130  and  _131
REMARK   57  A    between atoms: _131  and  _132
REMARK   58  A    between atoms: _136  and  _138
REMARK   59  A    between atoms: _138  and  _139
REMARK   60  A    between atoms: _138  and  _141
REMARK   61  A    between atoms: _141  and  _142
REMARK   62  A    between atoms: _145  and  _147
REMARK   63  A    between atoms: _147  and  _148
REMARK   64  A    between atoms: _147  and  _150
REMARK   65  A    between atoms: _150  and  _151
REMARK   66  A    between atoms: _153  and  _155
REMARK   67  A    between atoms: _155  and  _156
REMARK   68  A    between atoms: _155  and  _158
REMARK   69  A    between atoms: _158  and  _159
REMARK   70  A    between atoms: _159  and  _269
REMARK   71  A    between atoms: _160  and  _162
REMARK   72  A    between atoms: _162  and  _163
REMARK   73  A    between atoms: _162  and  _165
REMARK   74  A    between atoms: _165  and  _166
REMARK   75  A    between atoms: _166  and  _167
REMARK   76  A    between atoms: _172  and  _174
REMARK   77  A    between atoms: _174  and  _175
REMARK   78  A    between atoms: _177  and  _179
REMARK   79  A    between atoms: _179  and  _180
REMARK   80  A    between atoms: _179  and  _182
REMARK   81  A    between atoms: _182  and  _183
REMARK   82  A    between atoms: _186  and  _188
REMARK   83  A    between atoms: _188  and  _189
REMARK   84  A    between atoms: _188  and  _191
REMARK   85  A    between atoms: _191  and  _192
REMARK   86  A    between atoms: _194  and  _196
REMARK   87  A    between atoms: _196  and  _197
REMARK   88  A    between atoms: _199  and  _201
REMARK   89  A    between atoms: _201  and  _202
REMARK   90  A    between atoms: _204  and  _206
REMARK   91  A    between atoms: _206  and  _207
REMARK   92  A    between atoms: _206  and  _209
REMARK   93  A    between atoms: _209  and  _210
REMARK   94  A    between atoms: _213  and  _215
REMARK   95  A    between atoms: _215  and  _216
REMARK   96  A    between atoms: _215  and  _218
REMARK   97  A    between atoms: _221  and  _223
REMARK   98  A    between atoms: _223  and  _224
REMARK   99  A    between atoms: _223  and  _226
REMARK  100  A    between atoms: _226  and  _227
REMARK  101  A    between atoms: _229  and  _231
REMARK  102  A    between atoms: _231  and  _232
REMARK  103  A    between atoms: _231  and  _234
REMARK  104  A    between atoms: _234  and  _235
REMARK  105  A    between atoms: _245  and  _247
REMARK  106  A    between atoms: _247  and  _248
REMARK  107  A    between atoms: _250  and  _252
REMARK  108  A    between atoms: _252  and  _253
REMARK  109  A    between atoms: _252  and  _255
REMARK  110  A    between atoms: _255  and  _256
REMARK  111  A    between atoms: _258  and  _260
REMARK  112  A    between atoms: _260  and  _261
REMARK  113  A    between atoms: _263  and  _265
REMARK  114  A    between atoms: _265  and  _266
REMARK  115  A    between atoms: _265  and  _268
REMARK  116  A    between atoms: _268  and  _269
REMARK  117  A    between atoms: _270  and  _272
REMARK  118  A    between atoms: _272  and  _273
REMARK  119  A    between atoms: _276  and  _278
REMARK  120  A    between atoms: _278  and  _279
REMARK  121  A    between atoms: _278  and  _281
REMARK  122  A    between atoms: _281  and  _282
REMARK  123  A    between atoms: _282  and  _283
REMARK  124  A    between atoms: _288  and  _290
REMARK  125  A    between atoms: _290  and  _291
REMARK  126  A    between atoms: _290  and  _293
REMARK  127  A    between atoms: _293  and  _294
REMARK  128  A    between atoms: _294  and  _295
REMARK  129  A    between atoms: _295  and  _296
REMARK  130  A    between atoms: _296  and  _297
REMARK  131  A    between atoms: _302  and  _303
REMARK  132  A    between atoms: _308  and  _310
REMARK  133  A    between atoms: _310  and  _311
REMARK  134  A    between atoms: _313  and  _315
REMARK  135  A    between atoms: _315  and  _316
REMARK  136  A    between atoms: _315  and  _318
REMARK  137  A    between atoms: _321  and  _323
REMARK  138  A    between atoms: _323  and  _324
REMARK  139  A    between atoms: _323  and  _326
REMARK  140  A    between atoms: _326  and  _327
REMARK  141  A    between atoms: _332  and  _333
REMARK  142  A    between atoms: _335  and  _337
REMARK  143  A    between atoms: _337  and  _338
REMARK  144  A    between atoms: _337  and  _340
REMARK  145  A    between atoms: _340  and  _341
REMARK                            x       y       z     vdW  Elec       q    Type
REMARK                         _______ _______ _______ _____ _____    ______ ____
ROOT
ATOM      1  N   CYS A   2      22.004  12.652  26.393  0.00  0.00    -0.297 N 
ATOM      2  H   CYS A   2      21.378  13.407  26.047  0.00  0.00    +0.150 HD
ATOM      3  C   HIS A   1      22.024  11.488  25.732  0.00  0.00    +0.239 C 
ATOM      4  O   HIS A   1      22.810  10.582  26.000  0.00  0.00    -0.274 OA
ENDROOT
BRANCH   1   5
ATOM      5  CA  CYS A   2      22.822  12.915  27.581  0.00  0.00    +0.149 C 
BRANCH   5   6
ATOM      6  C   CYS A   2      22.163  12.459  28.885  0.00  0.00    +0.228 C 
ATOM      7  O   CYS A   2      22.774  12.577  29.945  0.00  0.00    -0.286 OA
ENDBRANCH   5   6
BRANCH   5   8
ATOM      8  CB  CYS A   2      23.176  14.400  27.678  0.00  0.00    +0.096 C 
BRANCH   8   9
ATOM      9  SG  CYS A   2      24.283  14.953  26.383  0.00  0.00    -0.080 S 
BRANCH   9  10
ATOM     10  SG  HIS A   1      26.130  14.432  27.087  0.00  0.00    -0.080 S 
BRANCH  10  11
ATOM     11  CB  HIS A   1      26.568  15.834  28.141  0.00  0.00    +0.094 C 
BRANCH  11  12
ATOM     12  CA  HIS A   1      28.015  16.331  28.034  0.00  0.00    +0.145 C 
BRANCH  12  13
ATOM     13  N   HIS A   1      28.882  15.667  29.002  0.00  0.00    -0.238 NA
ATOM     14  H   HIS A   1      29.182  16.178  29.857  0.00  0.00    +0.142 HD
ENDBRANCH  12  13
BRANCH  12  15
ATOM     15  C   HIS A   1      28.034  17.812  28.314  0.00  0.00    +0.225 C 
ATOM     16  O   HIS A   1      28.351  18.238  29.425  0.00  0.00    -0.287 OA
ENDBRANCH  12  15
ENDBRANCH  11  12
ENDBRANCH  10  11
ENDBRANCH   9  10
ENDBRANCH   8   9
ENDBRANCH   5   8
ENDBRANCH   1   5
BRANCH   3  17
ATOM     17  CA  HIS A   1      20.971  11.292  24.622  0.00  0.00    +0.151 C 
BRANCH  17  18
ATOM     18  N   HIS A   1      20.002  12.378  24.582  0.00  0.00    -0.238 NA
ATOM     19  H   HIS A   1      20.011  13.062  23.799  0.00  0.00    +0.142 HD
ENDBRANCH  17  18
BRANCH  17  20
ATOM     20  CB  HIS A   1      21.577  10.981  23.236  0.00  0.00    +0.074 C 
BRANCH  20  21
ATOM     21  CG  HIS A   1      22.693  11.888  22.814  0.00  0.00    +0.082 A 
ATOM     22  CD2 HIS A   1      24.022  11.841  23.084  0.00  0.00    +0.115 A 
ATOM     23  NE2 HIS A   1      24.612  12.890  22.422  0.00  0.00    -0.221 NA
ATOM     24  CE1 HIS A   1      23.680  13.557  21.763  0.00  0.00    +0.199 A 
ATOM     25  ND1 HIS A   1      22.514  12.969  21.976  0.00  0.00    -0.227 NA
ENDBRANCH  20  21
ENDBRANCH  17  20
ENDBRANCH   3  17
TORSDOF 13
REMARK  Name = ../refined-set-2016/3nkk/3nkk_pocket.pdb
REMARK  145 active torsions:
REMARK  status: ('A' for Active; 'I' for Inactive)
REMARK    1  A    between atoms: _1  and  _5
REMARK    2  A    between atoms: _5  and  _6
REMARK    3  A    between atoms: _5  and  _8
REMARK    4  A    between atoms: _8  and  _9
REMARK    5  A    between atoms: _12  and  _14
REMARK    6  A    between atoms: _14  and  _15
REMARK    7  A    between atoms: _14  and  _17
REMARK    8  A    between atoms: _20  and  _22
REMARK    9  A    between atoms: _22  and  _23
REMARK   10  A    between atoms: _22  and  _25
REMARK   11  A    between atoms: _25  and  _26
REMARK   12  A    between atoms: _26  and  _50
REMARK   13  A    between atoms: _27  and  _29
REMARK   14  A    between atoms: _29  and  _30
REMARK   15  A    between atoms: _33  and  _35
REMARK   16  A    between atoms: _35  and  _36
REMARK   17  A    between atoms: _35  and  _38
REMARK   18  A    between atoms: _38  and  _39
REMARK   19  A    between atoms: _44  and  _46
REMARK   20  A    between atoms: _46  and  _47
REMARK   21  A    between atoms: _46  and  _49
REMARK   22  A    between atoms: _49  and  _50
REMARK   23  A    between atoms: _51  and  _53
REMARK   24  A    between atoms: _53  and  _54
REMARK   25  A    between atoms: _53  and  _56
REMARK   26  A    between atoms: _56  and  _57
REMARK   27  A    between atoms: _60  and  _62
REMARK   28  A    between atoms: _62  and  _63
REMARK   29  A    between atoms: _62  and  _65
REMARK   30  A    between atoms: _65  and  _66
REMARK   31  A    between atoms: _69  and  _71
REMARK   32  A    between atoms: _71  and  _72
REMARK   33  A    between atoms: _71  and  _74
REMARK   34  A    between atoms: _74  and  _75
REMARK   35  A    between atoms: _78  and  _80
REMARK   36  A    between atoms: _80  and  _81
REMARK   37  A    between atoms: _80  and  _83
REMARK   38  A    between atoms: _83  and  _84
REMARK   39  A    between atoms: _89  and  _91
REMARK   40  A    between atoms: _91  and  _92
REMARK   41  A    between atoms: _91  and  _94
REMARK   42  A    between atoms: _94  and  _95
REMARK   43  A    between atoms: _100  and  _101
REMARK   44  A    between atoms: _103  and  _105
REMARK   45  A    between atoms: _105  and  _106
REMARK   46  A    between atoms: _105  and  _108
REMARK   47  A    between atoms: _108  and  _109
REMARK   48  A    between atoms: _114  and  _115
REMARK   49  A    between atoms: _117  and  _119
REMARK   50  A    between atoms: _119  and  _120
REMARK   51  A    between atoms: _123  and  _125
REMARK   52  A    between atoms: _125  and  _126
REMARK   53  A    between atoms: _125  and  _128
REMARK   54  A    between atoms: _128  and  _129
REMARK   55  A    between atoms: _129  and  _130
REMARK   56  A    between atoms: _130  and  _131
REMARK   57  A    between atoms: _131  and  _132
REMARK   58  A    between atoms: _136  and  _138
REMARK   59  A    between atoms: _138  and  _139
REMARK   60  A    between atoms: _138  and  _141
REMARK   61  A    between atoms: _141  and  _142
REMARK   62  A    between atoms: _145  and  _147
REMARK   63  A    between atoms: _147  and  _148
REMARK   64  A    between atoms: _147  and  _150
REMARK   65  A    between atoms: _150  and  _151
REMARK   66  A    between atoms: _153  and  _155
REMARK   67  A    between atoms: _155  and  _156
REMARK   68  A    between atoms: _155  and  _158
REMARK   69  A    between atoms: _158  and  _159
REMARK   70  A    between atoms: _159  and  _269
REMARK   71  A    between atoms: _160  and  _162
REMARK   72  A    between atoms: _162  and  _163
REMARK   73  A    between atoms: _162  and  _165
REMARK   74  A    between atoms: _165  and  _166
REMARK   75  A    between atoms: _166  and  _167
REMARK   76  A    between atoms: _172  and  _174
REMARK   77  A    between atoms: _174  and  _175
REMARK   78  A    between atoms: _177  and  _179
REMARK   79  A    between atoms: _179  and  _180
REMARK   80  A    between atoms: _179  and  _182
REMARK   81  A    between atoms: _182  and  _183
REMARK   82  A    between atoms: _186  and  _188
REMARK   83  A    between atoms: _188  and  _189
REMARK   84  A    between atoms: _188  and  _191
REMARK   85  A    between atoms: _191  and  _192
REMARK   86  A    between atoms: _194  and  _196
REMARK   87  A    between atoms: _196  and  _197
REMARK   88  A    between atoms: _199  and  _201
REMARK   89  A    between atoms: _201  and  _202
REMARK   90  A    between atoms: _204  and  _206
REMARK   91  A    between atoms: _206  and  _207
REMARK   92  A    between atoms: _206  and  _209
REMARK   93  A    between atoms: _209  and  _210
REMARK   94  A    between atoms: _213  and  _215
REMARK   95  A    between atoms: _215  and  _216
REMARK   96  A    between atoms: _215  and  _218
REMARK   97  A    between atoms: _221  and  _223
REMARK   98  A    between atoms: _223  and  _224
REMARK   99  A    between atoms: _223  and  _226
REMARK  100  A    between atoms: _226  and  _227
REMARK  101  A    between atoms: _229  and  _231
REMARK  102  A    between atoms: _231  and  _232
REMARK  103  A    between atoms: _231  and  _234
REMARK  104  A    between atoms: _234  and  _235
REMARK  105  A    between atoms: _245  and  _247
REMARK  106  A    between atoms: _247  and  _248
REMARK  107  A    between atoms: _250  and  _252
REMARK  108  A    between atoms: _252  and  _253
REMARK  109  A    between atoms: _252  and  _255
REMARK  110  A    between atoms: _255  and  _256
REMARK  111  A    between atoms: _258  and  _260
REMARK  112  A    between atoms: _260  and  _261
REMARK  113  A    between atoms: _263  and  _265
REMARK  114  A    between atoms: _265  and  _266
REMARK  115  A    between atoms: _265  and  _268
REMARK  116  A    between atoms: _268  and  _269
REMARK  117  A    between atoms: _270  and  _272
REMARK  118  A    between atoms: _272  and  _273
REMARK  119  A    between atoms: _276  and  _278
REMARK  120  A    between atoms: _278  and  _279
REMARK  121  A    between atoms: _278  and  _281
REMARK  122  A    between atoms: _281  and  _282
REMARK  123  A    between atoms: _282  and  _283
REMARK  124  A    between atoms: _288  and  _290
REMARK  125  A    between atoms: _290  and  _291
REMARK  126  A    between atoms: _290  and  _293
REMARK  127  A    between atoms: _293  and  _294
REMARK  128  A    between atoms: _294  and  _295
REMARK  129  A    between atoms: _295  and  _296
REMARK  130  A    between atoms: _296  and  _297
REMARK  131  A    between atoms: _302  and  _303
REMARK  132  A    between atoms: _308  and  _310
REMARK  133  A    between atoms: _310  and  _311
REMARK  134  A    between atoms: _313  and  _315
REMARK  135  A    between atoms: _315  and  _316
REMARK  136  A    between atoms: _315  and  _318
REMARK  137  A    between atoms: _321  and  _323
REMARK  138  A    between atoms: _323  and  _324
REMARK  139  A    between atoms: _323  and  _326
REMARK  140  A    between atoms: _326  and  _327
REMARK  141  A    between atoms: _332  and  _333
REMARK  142  A    between atoms: _335  and  _337
REMARK  143  A    between atoms: _337  and  _338
REMARK  144  A    between atoms: _337  and  _340
REMARK  145  A    between atoms: _340  and  _341
REMARK                            x       y       z     vdW  Elec       q    Type
REMARK                         _______ _______ _______ _____ _____    ______ ____
ROOT
ATOM      1  CA  ALA A   1      20.373  16.529  24.516  0.00  0.00    +0.133 C 
ATOM      2  CB  ALA A   1      21.489  15.963  23.649  0.00  0.00    +0.027 C 
ENDROOT
BRANCH   1   3
ATOM      3  N   ALA A   1      20.893  17.561  25.399  0.00  0.00    -0.239 NA
ATOM      4  H   ALA A   1      21.888  17.523  25.698  0.00  0.00    +0.142 HD
ENDBRANCH   1   3
BRANCH   1   5
ATOM      5  C   ALA A   1      19.759  15.415  25.354  0.00  0.00    +0.224 C 
ATOM      6  O   ALA A   1      20.287  15.062  26.411  0.00  0.00    -0.287 OA
ENDBRANCH   1   5
TORSDOF 2
REMARK  Name = ../refined-set-2016/3nkk/3nkk_pocket.pdb
REMARK  145 active torsions:
REMARK  status: ('A' for Active; 'I' for Inactive)
REMARK    1  A    between atoms: _1  and  _5
REMARK    2  A    between atoms: _5  and  _6
REMARK    3  A    between atoms: _5  and  _8
REMARK    4  A    between atoms: _8  and  _9
REMARK    5  A    between atoms: _12  and  _14
REMARK    6  A    between atoms: _14  and  _15
REMARK    7  A    between atoms: _14  and  _17
REMARK    8  A    between atoms: _20  and  _22
REMARK    9  A    between atoms: _22  and  _23
REMARK   10  A    between atoms: _22  and  _25
REMARK   11  A    between atoms: _25  and  _26
REMARK   12  A    between atoms: _26  and  _50
REMARK   13  A    between atoms: _27  and  _29
REMARK   14  A    between atoms: _29  and  _30
REMARK   15  A    between atoms: _33  and  _35
REMARK   16  A    between atoms: _35  and  _36
REMARK   17  A    between atoms: _35  and  _38
REMARK   18  A    between atoms: _38  and  _39
REMARK   19  A    between atoms: _44  and  _46
REMARK   20  A    between atoms: _46  and  _47
REMARK   21  A    between atoms: _46  and  _49
REMARK   22  A    between atoms: _49  and  _50
REMARK   23  A    between atoms: _51  and  _53
REMARK   24  A    between atoms: _53  and  _54
REMARK   25  A    between atoms: _53  and  _56
REMARK   26  A    between atoms: _56  and  _57
REMARK   27  A    between atoms: _60  and  _62
REMARK   28  A    between atoms: _62  and  _63
REMARK   29  A    between atoms: _62  and  _65
REMARK   30  A    between atoms: _65  and  _66
REMARK   31  A    between atoms: _69  and  _71
REMARK   32  A    between atoms: _71  and  _72
REMARK   33  A    between atoms: _71  and  _74
REMARK   34  A    between atoms: _74  and  _75
REMARK   35  A    between atoms: _78  and  _80
REMARK   36  A    between atoms: _80  and  _81
REMARK   37  A    between atoms: _80  and  _83
REMARK   38  A    between atoms: _83  and  _84
REMARK   39  A    between atoms: _89  and  _91
REMARK   40  A    between atoms: _91  and  _92
REMARK   41  A    between atoms: _91  and  _94
REMARK   42  A    between atoms: _94  and  _95
REMARK   43  A    between atoms: _100  and  _101
REMARK   44  A    between atoms: _103  and  _105
REMARK   45  A    between atoms: _105  and  _106
REMARK   46  A    between atoms: _105  and  _108
REMARK   47  A    between atoms: _108  and  _109
REMARK   48  A    between atoms: _114  and  _115
REMARK   49  A    between atoms: _117  and  _119
REMARK   50  A    between atoms: _119  and  _120
REMARK   51  A    between atoms: _123  and  _125
REMARK   52  A    between atoms: _125  and  _126
REMARK   53  A    between atoms: _125  and  _128
REMARK   54  A    between atoms: _128  and  _129
REMARK   55  A    between atoms: _129  and  _130
REMARK   56  A    between atoms: _130  and  _131
REMARK   57  A    between atoms: _131  and  _132
REMARK   58  A    between atoms: _136  and  _138
REMARK   59  A    between atoms: _138  and  _139
REMARK   60  A    between atoms: _138  and  _141
REMARK   61  A    between atoms: _141  and  _142
REMARK   62  A    between atoms: _145  and  _147
REMARK   63  A    between atoms: _147  and  _148
REMARK   64  A    between atoms: _147  and  _150
REMARK   65  A    between atoms: _150  and  _151
REMARK   66  A    between atoms: _153  and  _155
REMARK   67  A    between atoms: _155  and  _156
REMARK   68  A    between atoms: _155  and  _158
REMARK   69  A    between atoms: _158  and  _159
REMARK   70  A    between atoms: _159  and  _269
REMARK   71  A    between atoms: _160  and  _162
REMARK   72  A    between atoms: _162  and  _163
REMARK   73  A    between atoms: _162  and  _165
REMARK   74  A    between atoms: _165  and  _166
REMARK   75  A    between atoms: _166  and  _167
REMARK   76  A    between atoms: _172  and  _174
REMARK   77  A    between atoms: _174  and  _175
REMARK   78  A    between atoms: _177  and  _179
REMARK   79  A    between atoms: _179  and  _180
REMARK   80  A    between atoms: _179  and  _182
REMARK   81  A    between atoms: _182  and  _183
REMARK   82  A    between atoms: _186  and  _188
REMARK   83  A    between atoms: _188  and  _189
REMARK   84  A    between atoms: _188  and  _191
REMARK   85  A    between atoms: _191  and  _192
REMARK   86  A    between atoms: _194  and  _196
REMARK   87  A    between atoms: _196  and  _197
REMARK   88  A    between atoms: _199  and  _201
REMARK   89  A    between atoms: _201  and  _202
REMARK   90  A    between atoms: _204  and  _206
REMARK   91  A    between atoms: _206  and  _207
REMARK   92  A    between atoms: _206  and  _209
REMARK   93  A    between atoms: _209  and  _210
REMARK   94  A    between atoms: _213  and  _215
REMARK   95  A    between atoms: _215  and  _216
REMARK   96  A    between atoms: _215  and  _218
REMARK   97  A    between atoms: _221  and  _223
REMARK   98  A    between atoms: _223  and  _224
REMARK   99  A    between atoms: _223  and  _226
REMARK  100  A    between atoms: _226  and  _227
REMARK  101  A    between atoms: _229  and  _231
REMARK  102  A    between atoms: _231  and  _232
REMARK  103  A    between atoms: _231  and  _234
REMARK  104  A    between atoms: _234  and  _235
REMARK  105  A    between atoms: _245  and  _247
REMARK  106  A    between atoms: _247  and  _248
REMARK  107  A    between atoms: _250  and  _252
REMARK  108  A    between atoms: _252  and  _253
REMARK  109  A    between atoms: _252  and  _255
REMARK  110  A    between atoms: _255  and  _256
REMARK  111  A    between atoms: _258  and  _260
REMARK  112  A    between atoms: _260  and  _261
REMARK  113  A    between atoms: _263  and  _265
REMARK  114  A    between atoms: _265  and  _266
REMARK  115  A    between atoms: _265  and  _268
REMARK  116  A    between atoms: _268  and  _269
REMARK  117  A    between atoms: _270  and  _272
REMARK  118  A    between atoms: _272  and  _273
REMARK  119  A    between atoms: _276  and  _278
REMARK  120  A    between atoms: _278  and  _279
REMARK  121  A    between atoms: _278  and  _281
REMARK  122  A    between atoms: _281  and  _282
REMARK  123  A    between atoms: _282  and  _283
REMARK  124  A    between atoms: _288  and  _290
REMARK  125  A    between atoms: _290  and  _291
REMARK  126  A    between atoms: _290  and  _293
REMARK  127  A    between atoms: _293  and  _294
REMARK  128  A    between atoms: _294  and  _295
REMARK  129  A    between atoms: _295  and  _296
REMARK  130  A    between atoms: _296  and  _297
REMARK  131  A    between atoms: _302  and  _303
REMARK  132  A    between atoms: _308  and  _310
REMARK  133  A    between atoms: _310  and  _311
REMARK  134  A    between atoms: _313  and  _315
REMARK  135  A    between atoms: _315  and  _316
REMARK  136  A    between atoms: _315  and  _318
REMARK  137  A    between atoms: _321  and  _323
REMARK  138  A    between atoms: _323  and  _324
REMARK  139  A    between atoms: _323  and  _326
REMARK  140  A    between atoms: _326  and  _327
REMARK  141  A    between atoms: _332  and  _333
REMARK  142  A    between atoms: _335  and  _337
REMARK  143  A    between atoms: _337  and  _338
REMARK  144  A    between atoms: _337  and  _340
REMARK  145  A    between atoms: _340  and  _341
REMARK                            x       y       z     vdW  Elec       q    Type
REMARK                         _______ _______ _______ _____ _____    ______ ____
ROOT
ATOM      1  CA  LEU A   1      17.508  10.708  17.686  0.00  0.00    +0.133 C 
ENDROOT
BRANCH   1   2
ATOM      2  N   LEU A   1      17.169   9.428  17.059  0.00  0.00    -0.239 NA
ATOM      3  H   LEU A   1      16.953   8.624  17.682  0.00  0.00    +0.142 HD
ENDBRANCH   1   2
BRANCH   1   4
ATOM      4  C   LEU A   1      16.510  11.821  17.376  0.00  0.00    +0.224 C 
ATOM      5  O   LEU A   1      16.806  12.997  17.597  0.00  0.00    -0.287 OA
ENDBRANCH   1   4
BRANCH   1   6
ATOM      6  CB  LEU A   1      18.968  11.119  17.434  0.00  0.00    +0.025 C 
BRANCH   6   7
ATOM      7  CG  LEU A   1      20.001  10.131  17.995  0.00  0.00    +0.002 C 
ATOM      8  CD2 LEU A   1      19.809   9.846  19.483  0.00  0.00    +0.000 C 
ATOM      9  CD1 LEU A   1      21.393  10.637  17.740  0.00  0.00    +0.000 C 
ENDBRANCH   6   7
ENDBRANCH   1   6
TORSDOF 4
REMARK  Name = ../refined-set-2016/3nkk/3nkk_pocket.pdb
REMARK  145 active torsions:
REMARK  status: ('A' for Active; 'I' for Inactive)
REMARK    1  A    between atoms: _1  and  _5
REMARK    2  A    between atoms: _5  and  _6
REMARK    3  A    between atoms: _5  and  _8
REMARK    4  A    between atoms: _8  and  _9
REMARK    5  A    between atoms: _12  and  _14
REMARK    6  A    between atoms: _14  and  _15
REMARK    7  A    between atoms: _14  and  _17
REMARK    8  A    between atoms: _20  and  _22
REMARK    9  A    between atoms: _22  and  _23
REMARK   10  A    between atoms: _22  and  _25
REMARK   11  A    between atoms: _25  and  _26
REMARK   12  A    between atoms: _26  and  _50
REMARK   13  A    between atoms: _27  and  _29
REMARK   14  A    between atoms: _29  and  _30
REMARK   15  A    between atoms: _33  and  _35
REMARK   16  A    between atoms: _35  and  _36
REMARK   17  A    between atoms: _35  and  _38
REMARK   18  A    between atoms: _38  and  _39
REMARK   19  A    between atoms: _44  and  _46
REMARK   20  A    between atoms: _46  and  _47
REMARK   21  A    between atoms: _46  and  _49
REMARK   22  A    between atoms: _49  and  _50
REMARK   23  A    between atoms: _51  and  _53
REMARK   24  A    between atoms: _53  and  _54
REMARK   25  A    between atoms: _53  and  _56
REMARK   26  A    between atoms: _56  and  _57
REMARK   27  A    between atoms: _60  and  _62
REMARK   28  A    between atoms: _62  and  _63
REMARK   29  A    between atoms: _62  and  _65
REMARK   30  A    between atoms: _65  and  _66
REMARK   31  A    between atoms: _69  and  _71
REMARK   32  A    between atoms: _71  and  _72
REMARK   33  A    between atoms: _71  and  _74
REMARK   34  A    between atoms: _74  and  _75
REMARK   35  A    between atoms: _78  and  _80
REMARK   36  A    between atoms: _80  and  _81
REMARK   37  A    between atoms: _80  and  _83
REMARK   38  A    between atoms: _83  and  _84
REMARK   39  A    between atoms: _89  and  _91
REMARK   40  A    between atoms: _91  and  _92
REMARK   41  A    between atoms: _91  and  _94
REMARK   42  A    between atoms: _94  and  _95
REMARK   43  A    between atoms: _100  and  _101
REMARK   44  A    between atoms: _103  and  _105
REMARK   45  A    between atoms: _105  and  _106
REMARK   46  A    between atoms: _105  and  _108
REMARK   47  A    between atoms: _108  and  _109
REMARK   48  A    between atoms: _114  and  _115
REMARK   49  A    between atoms: _117  and  _119
REMARK   50  A    between atoms: _119  and  _120
REMARK   51  A    between atoms: _123  and  _125
REMARK   52  A    between atoms: _125  and  _126
REMARK   53  A    between atoms: _125  and  _128
REMARK   54  A    between atoms: _128  and  _129
REMARK   55  A    between atoms: _129  and  _130
REMARK   56  A    between atoms: _130  and  _131
REMARK   57  A    between atoms: _131  and  _132
REMARK   58  A    between atoms: _136  and  _138
REMARK   59  A    between atoms: _138  and  _139
REMARK   60  A    between atoms: _138  and  _141
REMARK   61  A    between atoms: _141  and  _142
REMARK   62  A    between atoms: _145  and  _147
REMARK   63  A    between atoms: _147  and  _148
REMARK   64  A    between atoms: _147  and  _150
REMARK   65  A    between atoms: _150  and  _151
REMARK   66  A    between atoms: _153  and  _155
REMARK   67  A    between atoms: _155  and  _156
REMARK   68  A    between atoms: _155  and  _158
REMARK   69  A    between atoms: _158  and  _159
REMARK   70  A    between atoms: _159  and  _269
REMARK   71  A    between atoms: _160  and  _162
REMARK   72  A    between atoms: _162  and  _163
REMARK   73  A    between atoms: _162  and  _165
REMARK   74  A    between atoms: _165  and  _166
REMARK   75  A    between atoms: _166  and  _167
REMARK   76  A    between atoms: _172  and  _174
REMARK   77  A    between atoms: _174  and  _175
REMARK   78  A    between atoms: _177  and  _179
REMARK   79  A    between atoms: _179  and  _180
REMARK   80  A    between atoms: _179  and  _182
REMARK   81  A    between atoms: _182  and  _183
REMARK   82  A    between atoms: _186  and  _188
REMARK   83  A    between atoms: _188  and  _189
REMARK   84  A    between atoms: _188  and  _191
REMARK   85  A    between atoms: _191  and  _192
REMARK   86  A    between atoms: _194  and  _196
REMARK   87  A    between atoms: _196  and  _197
REMARK   88  A    between atoms: _199  and  _201
REMARK   89  A    between atoms: _201  and  _202
REMARK   90  A    between atoms: _204  and  _206
REMARK   91  A    between atoms: _206  and  _207
REMARK   92  A    between atoms: _206  and  _209
REMARK   93  A    between atoms: _209  and  _210
REMARK   94  A    between atoms: _213  and  _215
REMARK   95  A    between atoms: _215  and  _216
REMARK   96  A    between atoms: _215  and  _218
REMARK   97  A    between atoms: _221  and  _223
REMARK   98  A    between atoms: _223  and  _224
REMARK   99  A    between atoms: _223  and  _226
REMARK  100  A    between atoms: _226  and  _227
REMARK  101  A    between atoms: _229  and  _231
REMARK  102  A    between atoms: _231  and  _232
REMARK  103  A    between atoms: _231  and  _234
REMARK  104  A    between atoms: _234  and  _235
REMARK  105  A    between atoms: _245  and  _247
REMARK  106  A    between atoms: _247  and  _248
REMARK  107  A    between atoms: _250  and  _252
REMARK  108  A    between atoms: _252  and  _253
REMARK  109  A    between atoms: _252  and  _255
REMARK  110  A    between atoms: _255  and  _256
REMARK  111  A    between atoms: _258  and  _260
REMARK  112  A    between atoms: _260  and  _261
REMARK  113  A    between atoms: _263  and  _265
REMARK  114  A    between atoms: _265  and  _266
REMARK  115  A    between atoms: _265  and  _268
REMARK  116  A    between atoms: _268  and  _269
REMARK  117  A    between atoms: _270  and  _272
REMARK  118  A    between atoms: _272  and  _273
REMARK  119  A    between atoms: _276  and  _278
REMARK  120  A    between atoms: _278  and  _279
REMARK  121  A    between atoms: _278  and  _281
REMARK  122  A    between atoms: _281  and  _282
REMARK  123  A    between atoms: _282  and  _283
REMARK  124  A    between atoms: _288  and  _290
REMARK  125  A    between atoms: _290  and  _291
REMARK  126  A    between atoms: _290  and  _293
REMARK  127  A    between atoms: _293  and  _294
REMARK  128  A    between atoms: _294  and  _295
REMARK  129  A    between atoms: _295  and  _296
REMARK  130  A    between atoms: _296  and  _297
REMARK  131  A    between atoms: _302  and  _303
REMARK  132  A    between atoms: _308  and  _310
REMARK  133  A    between atoms: _310  and  _311
REMARK  134  A    between atoms: _313  and  _315
REMARK  135  A    between atoms: _315  and  _316
REMARK  136  A    between atoms: _315  and  _318
REMARK  137  A    between atoms: _321  and  _323
REMARK  138  A    between atoms: _323  and  _324
REMARK  139  A    between atoms: _323  and  _326
REMARK  140  A    between atoms: _326  and  _327
REMARK  141  A    between atoms: _332  and  _333
REMARK  142  A    between atoms: _335  and  _337
REMARK  143  A    between atoms: _337  and  _338
REMARK  144  A    between atoms: _337  and  _340
REMARK  145  A    between atoms: _340  and  _341
REMARK                            x       y       z     vdW  Elec       q    Type
REMARK                         _______ _______ _______ _____ _____    ______ ____
ROOT
ATOM      1  CA  ASP A   1      16.891  14.872  21.034  0.00  0.00    +0.144 C 
ENDROOT
BRANCH   1   2
ATOM      2  N   ASP A   1      15.744  15.054  20.154  0.00  0.00    -0.239 NA
ATOM      3  H   ASP A   1      15.909  15.349  19.171  0.00  0.00    +0.142 HD
ENDBRANCH   1   2
BRANCH   1   4
ATOM      4  C   ASP A   1      17.097  16.113  21.899  0.00  0.00    +0.225 C 
ATOM      5  O   ASP A   1      18.003  16.932  21.680  0.00  0.00    -0.287 OA
ENDBRANCH   1   4
BRANCH   1   6
ATOM      6  CB  ASP A   1      18.139  14.548  20.221  0.00  0.00    +0.139 C 
BRANCH   6   7
ATOM      7  CG  ASP A   1      19.313  14.102  21.074  0.00  0.00    +0.367 C 
ATOM      8  OD2 ASP A   1      19.124  13.823  22.278  0.00  0.00    -0.246 OA
ATOM      9  OD1 ASP A   1      20.430  14.007  20.521  0.00  0.00    -0.246 OA
ENDBRANCH   6   7
ENDBRANCH   1   6
TORSDOF 4
REMARK  Name = ../refined-set-2016/3nkk/3nkk_pocket.pdb
REMARK  145 active torsions:
REMARK  status: ('A' for Active; 'I' for Inactive)
REMARK    1  A    between atoms: _1  and  _5
REMARK    2  A    between atoms: _5  and  _6
REMARK    3  A    between atoms: _5  and  _8
REMARK    4  A    between atoms: _8  and  _9
REMARK    5  A    between atoms: _12  and  _14
REMARK    6  A    between atoms: _14  and  _15
REMARK    7  A    between atoms: _14  and  _17
REMARK    8  A    between atoms: _20  and  _22
REMARK    9  A    between atoms: _22  and  _23
REMARK   10  A    between atoms: _22  and  _25
REMARK   11  A    between atoms: _25  and  _26
REMARK   12  A    between atoms: _26  and  _50
REMARK   13  A    between atoms: _27  and  _29
REMARK   14  A    between atoms: _29  and  _30
REMARK   15  A    between atoms: _33  and  _35
REMARK   16  A    between atoms: _35  and  _36
REMARK   17  A    between atoms: _35  and  _38
REMARK   18  A    between atoms: _38  and  _39
REMARK   19  A    between atoms: _44  and  _46
REMARK   20  A    between atoms: _46  and  _47
REMARK   21  A    between atoms: _46  and  _49
REMARK   22  A    between atoms: _49  and  _50
REMARK   23  A    between atoms: _51  and  _53
REMARK   24  A    between atoms: _53  and  _54
REMARK   25  A    between atoms: _53  and  _56
REMARK   26  A    between atoms: _56  and  _57
REMARK   27  A    between atoms: _60  and  _62
REMARK   28  A    between atoms: _62  and  _63
REMARK   29  A    between atoms: _62  and  _65
REMARK   30  A    between atoms: _65  and  _66
REMARK   31  A    between atoms: _69  and  _71
REMARK   32  A    between atoms: _71  and  _72
REMARK   33  A    between atoms: _71  and  _74
REMARK   34  A    between atoms: _74  and  _75
REMARK   35  A    between atoms: _78  and  _80
REMARK   36  A    between atoms: _80  and  _81
REMARK   37  A    between atoms: _80  and  _83
REMARK   38  A    between atoms: _83  and  _84
REMARK   39  A    between atoms: _89  and  _91
REMARK   40  A    between atoms: _91  and  _92
REMARK   41  A    between atoms: _91  and  _94
REMARK   42  A    between atoms: _94  and  _95
REMARK   43  A    between atoms: _100  and  _101
REMARK   44  A    between atoms: _103  and  _105
REMARK   45  A    between atoms: _105  and  _106
REMARK   46  A    between atoms: _105  and  _108
REMARK   47  A    between atoms: _108  and  _109
REMARK   48  A    between atoms: _114  and  _115
REMARK   49  A    between atoms: _117  and  _119
REMARK   50  A    between atoms: _119  and  _120
REMARK   51  A    between atoms: _123  and  _125
REMARK   52  A    between atoms: _125  and  _126
REMARK   53  A    between atoms: _125  and  _128
REMARK   54  A    between atoms: _128  and  _129
REMARK   55  A    between atoms: _129  and  _130
REMARK   56  A    between atoms: _130  and  _131
REMARK   57  A    between atoms: _131  and  _132
REMARK   58  A    between atoms: _136  and  _138
REMARK   59  A    between atoms: _138  and  _139
REMARK   60  A    between atoms: _138  and  _141
REMARK   61  A    between atoms: _141  and  _142
REMARK   62  A    between atoms: _145  and  _147
REMARK   63  A    between atoms: _147  and  _148
REMARK   64  A    between atoms: _147  and  _150
REMARK   65  A    between atoms: _150  and  _151
REMARK   66  A    between atoms: _153  and  _155
REMARK   67  A    between atoms: _155  and  _156
REMARK   68  A    between atoms: _155  and  _158
REMARK   69  A    between atoms: _158  and  _159
REMARK   70  A    between atoms: _159  and  _269
REMARK   71  A    between atoms: _160  and  _162
REMARK   72  A    between atoms: _162  and  _163
REMARK   73  A    between atoms: _162  and  _165
REMARK   74  A    between atoms: _165  and  _166
REMARK   75  A    between atoms: _166  and  _167
REMARK   76  A    between atoms: _172  and  _174
REMARK   77  A    between atoms: _174  and  _175
REMARK   78  A    between atoms: _177  and  _179
REMARK   79  A    between atoms: _179  and  _180
REMARK   80  A    between atoms: _179  and  _182
REMARK   81  A    between atoms: _182  and  _183
REMARK   82  A    between atoms: _186  and  _188
REMARK   83  A    between atoms: _188  and  _189
REMARK   84  A    between atoms: _188  and  _191
REMARK   85  A    between atoms: _191  and  _192
REMARK   86  A    between atoms: _194  and  _196
REMARK   87  A    between atoms: _196  and  _197
REMARK   88  A    between atoms: _199  and  _201
REMARK   89  A    between atoms: _201  and  _202
REMARK   90  A    between atoms: _204  and  _206
REMARK   91  A    between atoms: _206  and  _207
REMARK   92  A    between atoms: _206  and  _209
REMARK   93  A    between atoms: _209  and  _210
REMARK   94  A    between atoms: _213  and  _215
REMARK   95  A    between atoms: _215  and  _216
REMARK   96  A    between atoms: _215  and  _218
REMARK   97  A    between atoms: _221  and  _223
REMARK   98  A    between atoms: _223  and  _224
REMARK   99  A    between atoms: _223  and  _226
REMARK  100  A    between atoms: _226  and  _227
REMARK  101  A    between atoms: _229  and  _231
REMARK  102  A    between atoms: _231  and  _232
REMARK  103  A    between atoms: _231  and  _234
REMARK  104  A    between atoms: _234  and  _235
REMARK  105  A    between atoms: _245  and  _247
REMARK  106  A    between atoms: _247  and  _248
REMARK  107  A    between atoms: _250  and  _252
REMARK  108  A    between atoms: _252  and  _253
REMARK  109  A    between atoms: _252  and  _255
REMARK  110  A    between atoms: _255  and  _256
REMARK  111  A    between atoms: _258  and  _260
REMARK  112  A    between atoms: _260  and  _261
REMARK  113  A    between atoms: _263  and  _265
REMARK  114  A    between atoms: _265  and  _266
REMARK  115  A    between atoms: _265  and  _268
REMARK  116  A    between atoms: _268  and  _269
REMARK  117  A    between atoms: _270  and  _272
REMARK  118  A    between atoms: _272  and  _273
REMARK  119  A    between atoms: _276  and  _278
REMARK  120  A    between atoms: _278  and  _279
REMARK  121  A    between atoms: _278  and  _281
REMARK  122  A    between atoms: _281  and  _282
REMARK  123  A    between atoms: _282  and  _283
REMARK  124  A    between atoms: _288  and  _290
REMARK  125  A    between atoms: _290  and  _291
REMARK  126  A    between atoms: _290  and  _293
REMARK  127  A    between atoms: _293  and  _294
REMARK  128  A    between atoms: _294  and  _295
REMARK  129  A    between atoms: _295  and  _296
REMARK  130  A    between atoms: _296  and  _297
REMARK  131  A    between atoms: _302  and  _303
REMARK  132  A    between atoms: _308  and  _310
REMARK  133  A    between atoms: _310  and  _311
REMARK  134  A    between atoms: _313  and  _315
REMARK  135  A    between atoms: _315  and  _316
REMARK  136  A    between atoms: _315  and  _318
REMARK  137  A    between atoms: _321  and  _323
REMARK  138  A    between atoms: _323  and  _324
REMARK  139  A    between atoms: _323  and  _326
REMARK  140  A    between atoms: _326  and  _327
REMARK  141  A    between atoms: _332  and  _333
REMARK  142  A    between atoms: _335  and  _337
REMARK  143  A    between atoms: _337  and  _338
REMARK  144  A    between atoms: _337  and  _340
REMARK  145  A    between atoms: _340  and  _341
REMARK                            x       y       z     vdW  Elec       q    Type
REMARK                         _______ _______ _______ _____ _____    ______ ____
ROOT
ATOM      1  CA  ILE A   1      29.184  25.919  18.686  0.00  0.00    +0.133 C 
ENDROOT
BRANCH   1   2
ATOM      2  N   ILE A   1      29.330  27.244  18.087  0.00  0.00    -0.239 NA
ATOM      3  H   ILE A   1      30.151  27.422  17.473  0.00  0.00    +0.142 HD
ENDBRANCH   1   2
BRANCH   1   4
ATOM      4  C   ILE A   1      30.343  25.733  19.659  0.00  0.00    +0.224 C 
ATOM      5  O   ILE A   1      31.469  26.115  19.354  0.00  0.00    -0.287 OA
ENDBRANCH   1   4
BRANCH   1   6
ATOM      6  CB  ILE A   1      29.195  24.825  17.588  0.00  0.00    +0.023 C 
ATOM      7  CG2 ILE A   1      28.909  23.452  18.195  0.00  0.00    +0.002 C 
BRANCH   6   8
ATOM      8  CG1 ILE A   1      28.198  25.183  16.474  0.00  0.00    +0.002 C 
ATOM      9  CD1 ILE A   1      28.209  24.240  15.297  0.00  0.00    +0.000 C 
ENDBRANCH   6   8
ENDBRANCH   1   6
TORSDOF 4
REMARK  Name = ../refined-set-2016/3nkk/3nkk_pocket.pdb
REMARK  145 active torsions:
REMARK  status: ('A' for Active; 'I' for Inactive)
REMARK    1  A    between atoms: _1  and  _5
REMARK    2  A    between atoms: _5  and  _6
REMARK    3  A    between atoms: _5  and  _8
REMARK    4  A    between atoms: _8  and  _9
REMARK    5  A    between atoms: _12  and  _14
REMARK    6  A    between atoms: _14  and  _15
REMARK    7  A    between atoms: _14  and  _17
REMARK    8  A    between atoms: _20  and  _22
REMARK    9  A    between atoms: _22  and  _23
REMARK   10  A    between atoms: _22  and  _25
REMARK   11  A    between atoms: _25  and  _26
REMARK   12  A    between atoms: _26  and  _50
REMARK   13  A    between atoms: _27  and  _29
REMARK   14  A    between atoms: _29  and  _30
REMARK   15  A    between atoms: _33  and  _35
REMARK   16  A    between atoms: _35  and  _36
REMARK   17  A    between atoms: _35  and  _38
REMARK   18  A    between atoms: _38  and  _39
REMARK   19  A    between atoms: _44  and  _46
REMARK   20  A    between atoms: _46  and  _47
REMARK   21  A    between atoms: _46  and  _49
REMARK   22  A    between atoms: _49  and  _50
REMARK   23  A    between atoms: _51  and  _53
REMARK   24  A    between atoms: _53  and  _54
REMARK   25  A    between atoms: _53  and  _56
REMARK   26  A    between atoms: _56  and  _57
REMARK   27  A    between atoms: _60  and  _62
REMARK   28  A    between atoms: _62  and  _63
REMARK   29  A    between atoms: _62  and  _65
REMARK   30  A    between atoms: _65  and  _66
REMARK   31  A    between atoms: _69  and  _71
REMARK   32  A    between atoms: _71  and  _72
REMARK   33  A    between atoms: _71  and  _74
REMARK   34  A    between atoms: _74  and  _75
REMARK   35  A    between atoms: _78  and  _80
REMARK   36  A    between atoms: _80  and  _81
REMARK   37  A    between atoms: _80  and  _83
REMARK   38  A    between atoms: _83  and  _84
REMARK   39  A    between atoms: _89  and  _91
REMARK   40  A    between atoms: _91  and  _92
REMARK   41  A    between atoms: _91  and  _94
REMARK   42  A    between atoms: _94  and  _95
REMARK   43  A    between atoms: _100  and  _101
REMARK   44  A    between atoms: _103  and  _105
REMARK   45  A    between atoms: _105  and  _106
REMARK   46  A    between atoms: _105  and  _108
REMARK   47  A    between atoms: _108  and  _109
REMARK   48  A    between atoms: _114  and  _115
REMARK   49  A    between atoms: _117  and  _119
REMARK   50  A    between atoms: _119  and  _120
REMARK   51  A    between atoms: _123  and  _125
REMARK   52  A    between atoms: _125  and  _126
REMARK   53  A    between atoms: _125  and  _128
REMARK   54  A    between atoms: _128  and  _129
REMARK   55  A    between atoms: _129  and  _130
REMARK   56  A    between atoms: _130  and  _131
REMARK   57  A    between atoms: _131  and  _132
REMARK   58  A    between atoms: _136  and  _138
REMARK   59  A    between atoms: _138  and  _139
REMARK   60  A    between atoms: _138  and  _141
REMARK   61  A    between atoms: _141  and  _142
REMARK   62  A    between atoms: _145  and  _147
REMARK   63  A    between atoms: _147  and  _148
REMARK   64  A    between atoms: _147  and  _150
REMARK   65  A    between atoms: _150  and  _151
REMARK   66  A    between atoms: _153  and  _155
REMARK   67  A    between atoms: _155  and  _156
REMARK   68  A    between atoms: _155  and  _158
REMARK   69  A    between atoms: _158  and  _159
REMARK   70  A    between atoms: _159  and  _269
REMARK   71  A    between atoms: _160  and  _162
REMARK   72  A    between atoms: _162  and  _163
REMARK   73  A    between atoms: _162  and  _165
REMARK   74  A    between atoms: _165  and  _166
REMARK   75  A    between atoms: _166  and  _167
REMARK   76  A    between atoms: _172  and  _174
REMARK   77  A    between atoms: _174  and  _175
REMARK   78  A    between atoms: _177  and  _179
REMARK   79  A    between atoms: _179  and  _180
REMARK   80  A    between atoms: _179  and  _182
REMARK   81  A    between atoms: _182  and  _183
REMARK   82  A    between atoms: _186  and  _188
REMARK   83  A    between atoms: _188  and  _189
REMARK   84  A    between atoms: _188  and  _191
REMARK   85  A    between atoms: _191  and  _192
REMARK   86  A    between atoms: _194  and  _196
REMARK   87  A    between atoms: _196  and  _197
REMARK   88  A    between atoms: _199  and  _201
REMARK   89  A    between atoms: _201  and  _202
REMARK   90  A    between atoms: _204  and  _206
REMARK   91  A    between atoms: _206  and  _207
REMARK   92  A    between atoms: _206  and  _209
REMARK   93  A    between atoms: _209  and  _210
REMARK   94  A    between atoms: _213  and  _215
REMARK   95  A    between atoms: _215  and  _216
REMARK   96  A    between atoms: _215  and  _218
REMARK   97  A    between atoms: _221  and  _223
REMARK   98  A    between atoms: _223  and  _224
REMARK   99  A    between atoms: _223  and  _226
REMARK  100  A    between atoms: _226  and  _227
REMARK  101  A    between atoms: _229  and  _231
REMARK  102  A    between atoms: _231  and  _232
REMARK  103  A    between atoms: _231  and  _234
REMARK  104  A    between atoms: _234  and  _235
REMARK  105  A    between atoms: _245  and  _247
REMARK  106  A    between atoms: _247  and  _248
REMARK  107  A    between atoms: _250  and  _252
REMARK  108  A    between atoms: _252  and  _253
REMARK  109  A    between atoms: _252  and  _255
REMARK  110  A    between atoms: _255  and  _256
REMARK  111  A    between atoms: _258  and  _260
REMARK  112  A    between atoms: _260  and  _261
REMARK  113  A    between atoms: _263  and  _265
REMARK  114  A    between atoms: _265  and  _266
REMARK  115  A    between atoms: _265  and  _268
REMARK  116  A    between atoms: _268  and  _269
REMARK  117  A    between atoms: _270  and  _272
REMARK  118  A    between atoms: _272  and  _273
REMARK  119  A    between atoms: _276  and  _278
REMARK  120  A    between atoms: _278  and  _279
REMARK  121  A    between atoms: _278  and  _281
REMARK  122  A    between atoms: _281  and  _282
REMARK  123  A    between atoms: _282  and  _283
REMARK  124  A    between atoms: _288  and  _290
REMARK  125  A    between atoms: _290  and  _291
REMARK  126  A    between atoms: _290  and  _293
REMARK  127  A    between atoms: _293  and  _294
REMARK  128  A    between atoms: _294  and  _295
REMARK  129  A    between atoms: _295  and  _296
REMARK  130  A    between atoms: _296  and  _297
REMARK  131  A    between atoms: _302  and  _303
REMARK  132  A    between atoms: _308  and  _310
REMARK  133  A    between atoms: _310  and  _311
REMARK  134  A    between atoms: _313  and  _315
REMARK  135  A    between atoms: _315  and  _316
REMARK  136  A    between atoms: _315  and  _318
REMARK  137  A    between atoms: _321  and  _323
REMARK  138  A    between atoms: _323  and  _324
REMARK  139  A    between atoms: _323  and  _326
REMARK  140  A    between atoms: _326  and  _327
REMARK  141  A    between atoms: _332  and  _333
REMARK  142  A    between atoms: _335  and  _337
REMARK  143  A    between atoms: _337  and  _338
REMARK  144  A    between atoms: _337  and  _340
REMARK  145  A    between atoms: _340  and  _341
REMARK                            x       y       z     vdW  Elec       q    Type
REMARK                         _______ _______ _______ _____ _____    ______ ____
ROOT
ATOM      1  CB  ASN A   1      36.931  14.121  20.503  0.00  0.00    +0.110 C 
ENDROOT
BRANCH   1   2
ATOM      2  CG  ASN A   1      38.163  13.391  19.975  0.00  0.00    +0.221 C 
ATOM      3  OD1 ASN A   1      39.296  13.870  20.046  0.00  0.00    -0.275 OA
ATOM      4  ND2 ASN A   1      37.923  12.212  19.409  0.00  0.00    -0.329 N 
ATOM      5 HD21 ASN A   1      36.952  11.842  19.369  0.00  0.00    +0.145 HD
ATOM      6 HD22 ASN A   1      38.707  11.659  19.006  0.00  0.00    +0.145 HD
ENDBRANCH   1   2
BRANCH   1   7
ATOM      7  CA  ASN A   1      37.244  15.453  21.204  0.00  0.00    +0.142 C 
BRANCH   7   8
ATOM      8  N   ASN A   1      36.053  15.871  21.933  0.00  0.00    -0.239 NA
ATOM      9  H   ASN A   1      35.260  15.201  21.993  0.00  0.00    +0.142 HD
ENDBRANCH   7   8
BRANCH   7  10
ATOM     10  C   ASN A   1      37.643  16.507  20.180  0.00  0.00    +0.225 C 
ATOM     11  O   ASN A   1      36.789  17.054  19.468  0.00  0.00    -0.287 OA
ENDBRANCH   7  10
ENDBRANCH   1   7
TORSDOF 4
REMARK  Name = ../refined-set-2016/3nkk/3nkk_pocket.pdb
REMARK  145 active torsions:
REMARK  status: ('A' for Active; 'I' for Inactive)
REMARK    1  A    between atoms: _1  and  _5
REMARK    2  A    between atoms: _5  and  _6
REMARK    3  A    between atoms: _5  and  _8
REMARK    4  A    between atoms: _8  and  _9
REMARK    5  A    between atoms: _12  and  _14
REMARK    6  A    between atoms: _14  and  _15
REMARK    7  A    between atoms: _14  and  _17
REMARK    8  A    between atoms: _20  and  _22
REMARK    9  A    between atoms: _22  and  _23
REMARK   10  A    between atoms: _22  and  _25
REMARK   11  A    between atoms: _25  and  _26
REMARK   12  A    between atoms: _26  and  _50
REMARK   13  A    between atoms: _27  and  _29
REMARK   14  A    between atoms: _29  and  _30
REMARK   15  A    between atoms: _33  and  _35
REMARK   16  A    between atoms: _35  and  _36
REMARK   17  A    between atoms: _35  and  _38
REMARK   18  A    between atoms: _38  and  _39
REMARK   19  A    between atoms: _44  and  _46
REMARK   20  A    between atoms: _46  and  _47
REMARK   21  A    between atoms: _46  and  _49
REMARK   22  A    between atoms: _49  and  _50
REMARK   23  A    between atoms: _51  and  _53
REMARK   24  A    between atoms: _53  and  _54
REMARK   25  A    between atoms: _53  and  _56
REMARK   26  A    between atoms: _56  and  _57
REMARK   27  A    between atoms: _60  and  _62
REMARK   28  A    between atoms: _62  and  _63
REMARK   29  A    between atoms: _62  and  _65
REMARK   30  A    between atoms: _65  and  _66
REMARK   31  A    between atoms: _69  and  _71
REMARK   32  A    between atoms: _71  and  _72
REMARK   33  A    between atoms: _71  and  _74
REMARK   34  A    between atoms: _74  and  _75
REMARK   35  A    between atoms: _78  and  _80
REMARK   36  A    between atoms: _80  and  _81
REMARK   37  A    between atoms: _80  and  _83
REMARK   38  A    between atoms: _83  and  _84
REMARK   39  A    between atoms: _89  and  _91
REMARK   40  A    between atoms: _91  and  _92
REMARK   41  A    between atoms: _91  and  _94
REMARK   42  A    between atoms: _94  and  _95
REMARK   43  A    between atoms: _100  and  _101
REMARK   44  A    between atoms: _103  and  _105
REMARK   45  A    between atoms: _105  and  _106
REMARK   46  A    between atoms: _105  and  _108
REMARK   47  A    between atoms: _108  and  _109
REMARK   48  A    between atoms: _114  and  _115
REMARK   49  A    between atoms: _117  and  _119
REMARK   50  A    between atoms: _119  and  _120
REMARK   51  A    between atoms: _123  and  _125
REMARK   52  A    between atoms: _125  and  _126
REMARK   53  A    between atoms: _125  and  _128
REMARK   54  A    between atoms: _128  and  _129
REMARK   55  A    between atoms: _129  and  _130
REMARK   56  A    between atoms: _130  and  _131
REMARK   57  A    between atoms: _131  and  _132
REMARK   58  A    between atoms: _136  and  _138
REMARK   59  A    between atoms: _138  and  _139
REMARK   60  A    between atoms: _138  and  _141
REMARK   61  A    between atoms: _141  and  _142
REMARK   62  A    between atoms: _145  and  _147
REMARK   63  A    between atoms: _147  and  _148
REMARK   64  A    between atoms: _147  and  _150
REMARK   65  A    between atoms: _150  and  _151
REMARK   66  A    between atoms: _153  and  _155
REMARK   67  A    between atoms: _155  and  _156
REMARK   68  A    between atoms: _155  and  _158
REMARK   69  A    between atoms: _158  and  _159
REMARK   70  A    between atoms: _159  and  _269
REMARK   71  A    between atoms: _160  and  _162
REMARK   72  A    between atoms: _162  and  _163
REMARK   73  A    between atoms: _162  and  _165
REMARK   74  A    between atoms: _165  and  _166
REMARK   75  A    between atoms: _166  and  _167
REMARK   76  A    between atoms: _172  and  _174
REMARK   77  A    between atoms: _174  and  _175
REMARK   78  A    between atoms: _177  and  _179
REMARK   79  A    between atoms: _179  and  _180
REMARK   80  A    between atoms: _179  and  _182
REMARK   81  A    between atoms: _182  and  _183
REMARK   82  A    between atoms: _186  and  _188
REMARK   83  A    between atoms: _188  and  _189
REMARK   84  A    between atoms: _188  and  _191
REMARK   85  A    between atoms: _191  and  _192
REMARK   86  A    between atoms: _194  and  _196
REMARK   87  A    between atoms: _196  and  _197
REMARK   88  A    between atoms: _199  and  _201
REMARK   89  A    between atoms: _201  and  _202
REMARK   90  A    between atoms: _204  and  _206
REMARK   91  A    between atoms: _206  and  _207
REMARK   92  A    between atoms: _206  and  _209
REMARK   93  A    between atoms: _209  and  _210
REMARK   94  A    between atoms: _213  and  _215
REMARK   95  A    between atoms: _215  and  _216
REMARK   96  A    between atoms: _215  and  _218
REMARK   97  A    between atoms: _221  and  _223
REMARK   98  A    between atoms: _223  and  _224
REMARK   99  A    between atoms: _223  and  _226
REMARK  100  A    between atoms: _226  and  _227
REMARK  101  A    between atoms: _229  and  _231
REMARK  102  A    between atoms: _231  and  _232
REMARK  103  A    between atoms: _231  and  _234
REMARK  104  A    between atoms: _234  and  _235
REMARK  105  A    between atoms: _245  and  _247
REMARK  106  A    between atoms: _247  and  _248
REMARK  107  A    between atoms: _250  and  _252
REMARK  108  A    between atoms: _252  and  _253
REMARK  109  A    between atoms: _252  and  _255
REMARK  110  A    between atoms: _255  and  _256
REMARK  111  A    between atoms: _258  and  _260
REMARK  112  A    between atoms: _260  and  _261
REMARK  113  A    between atoms: _263  and  _265
REMARK  114  A    between atoms: _265  and  _266
REMARK  115  A    between atoms: _265  and  _268
REMARK  116  A    between atoms: _268  and  _269
REMARK  117  A    between atoms: _270  and  _272
REMARK  118  A    between atoms: _272  and  _273
REMARK  119  A    between atoms: _276  and  _278
REMARK  120  A    between atoms: _278  and  _279
REMARK  121  A    between atoms: _278  and  _281
REMARK  122  A    between atoms: _281  and  _282
REMARK  123  A    between atoms: _282  and  _283
REMARK  124  A    between atoms: _288  and  _290
REMARK  125  A    between atoms: _290  and  _291
REMARK  126  A    between atoms: _290  and  _293
REMARK  127  A    between atoms: _293  and  _294
REMARK  128  A    between atoms: _294  and  _295
REMARK  129  A    between atoms: _295  and  _296
REMARK  130  A    between atoms: _296  and  _297
REMARK  131  A    between atoms: _302  and  _303
REMARK  132  A    between atoms: _308  and  _310
REMARK  133  A    between atoms: _310  and  _311
REMARK  134  A    between atoms: _313  and  _315
REMARK  135  A    between atoms: _315  and  _316
REMARK  136  A    between atoms: _315  and  _318
REMARK  137  A    between atoms: _321  and  _323
REMARK  138  A    between atoms: _323  and  _324
REMARK  139  A    between atoms: _323  and  _326
REMARK  140  A    between atoms: _326  and  _327
REMARK  141  A    between atoms: _332  and  _333
REMARK  142  A    between atoms: _335  and  _337
REMARK  143  A    between atoms: _337  and  _338
REMARK  144  A    between atoms: _337  and  _340
REMARK  145  A    between atoms: _340  and  _341
REMARK                            x       y       z     vdW  Elec       q    Type
REMARK                         _______ _______ _______ _____ _____    ______ ____
ROOT
ATOM      1  CG  TYR A   1      38.378  13.904  25.289  0.00  0.00    -0.020 A 
ATOM      2  CD2 TYR A   1      37.067  14.273  24.998  0.00  0.00    -0.001 A 
ATOM      3  CE2 TYR A   1      36.208  13.414  24.337  0.00  0.00    +0.036 A 
ATOM      4  CZ  TYR A   1      36.659  12.173  23.936  0.00  0.00    +0.134 A 
ATOM      5  CE1 TYR A   1      37.964  11.778  24.198  0.00  0.00    +0.036 A 
ATOM      6  CD1 TYR A   1      38.820  12.650  24.868  0.00  0.00    -0.001 A 
ENDROOT
BRANCH   4   7
ATOM      7  OH  TYR A   1      35.795  11.332  23.275  0.00  0.00    -0.506 OA
ATOM      8  HH  TYR A   1      35.016  11.139  23.855  0.00  0.00    +0.292 HD
ENDBRANCH   4   7
BRANCH   1   9
ATOM      9  CB  TYR A   1      39.301  14.861  25.999  0.00  0.00    +0.051 C 
BRANCH   9  10
ATOM     10  CA  TYR A   1      40.068  15.760  25.027  0.00  0.00    +0.137 C 
BRANCH  10  11
ATOM     11  N   TYR A   1      41.109  15.010  24.352  0.00  0.00    -0.239 NA
ATOM     12  H   TYR A   1      41.767  14.437  24.918  0.00  0.00    +0.142 HD
ENDBRANCH  10  11
BRANCH  10  13
ATOM     13  C   TYR A   1      40.668  16.954  25.733  0.00  0.00    +0.224 C 
ATOM     14  O   TYR A   1      41.596  16.800  26.525  0.00  0.00    -0.287 OA
ENDBRANCH  10  13
ENDBRANCH   9  10
ENDBRANCH   1   9
TORSDOF 5
REMARK  Name = ../refined-set-2016/3nkk/3nkk_pocket.pdb
REMARK  145 active torsions:
REMARK  status: ('A' for Active; 'I' for Inactive)
REMARK    1  A    between atoms: _1  and  _5
REMARK    2  A    between atoms: _5  and  _6
REMARK    3  A    between atoms: _5  and  _8
REMARK    4  A    between atoms: _8  and  _9
REMARK    5  A    between atoms: _12  and  _14
REMARK    6  A    between atoms: _14  and  _15
REMARK    7  A    between atoms: _14  and  _17
REMARK    8  A    between atoms: _20  and  _22
REMARK    9  A    between atoms: _22  and  _23
REMARK   10  A    between atoms: _22  and  _25
REMARK   11  A    between atoms: _25  and  _26
REMARK   12  A    between atoms: _26  and  _50
REMARK   13  A    between atoms: _27  and  _29
REMARK   14  A    between atoms: _29  and  _30
REMARK   15  A    between atoms: _33  and  _35
REMARK   16  A    between atoms: _35  and  _36
REMARK   17  A    between atoms: _35  and  _38
REMARK   18  A    between atoms: _38  and  _39
REMARK   19  A    between atoms: _44  and  _46
REMARK   20  A    between atoms: _46  and  _47
REMARK   21  A    between atoms: _46  and  _49
REMARK   22  A    between atoms: _49  and  _50
REMARK   23  A    between atoms: _51  and  _53
REMARK   24  A    between atoms: _53  and  _54
REMARK   25  A    between atoms: _53  and  _56
REMARK   26  A    between atoms: _56  and  _57
REMARK   27  A    between atoms: _60  and  _62
REMARK   28  A    between atoms: _62  and  _63
REMARK   29  A    between atoms: _62  and  _65
REMARK   30  A    between atoms: _65  and  _66
REMARK   31  A    between atoms: _69  and  _71
REMARK   32  A    between atoms: _71  and  _72
REMARK   33  A    between atoms: _71  and  _74
REMARK   34  A    between atoms: _74  and  _75
REMARK   35  A    between atoms: _78  and  _80
REMARK   36  A    between atoms: _80  and  _81
REMARK   37  A    between atoms: _80  and  _83
REMARK   38  A    between atoms: _83  and  _84
REMARK   39  A    between atoms: _89  and  _91
REMARK   40  A    between atoms: _91  and  _92
REMARK   41  A    between atoms: _91  and  _94
REMARK   42  A    between atoms: _94  and  _95
REMARK   43  A    between atoms: _100  and  _101
REMARK   44  A    between atoms: _103  and  _105
REMARK   45  A    between atoms: _105  and  _106
REMARK   46  A    between atoms: _105  and  _108
REMARK   47  A    between atoms: _108  and  _109
REMARK   48  A    between atoms: _114  and  _115
REMARK   49  A    between atoms: _117  and  _119
REMARK   50  A    between atoms: _119  and  _120
REMARK   51  A    between atoms: _123  and  _125
REMARK   52  A    between atoms: _125  and  _126
REMARK   53  A    between atoms: _125  and  _128
REMARK   54  A    between atoms: _128  and  _129
REMARK   55  A    between atoms: _129  and  _130
REMARK   56  A    between atoms: _130  and  _131
REMARK   57  A    between atoms: _131  and  _132
REMARK   58  A    between atoms: _136  and  _138
REMARK   59  A    between atoms: _138  and  _139
REMARK   60  A    between atoms: _138  and  _141
REMARK   61  A    between atoms: _141  and  _142
REMARK   62  A    between atoms: _145  and  _147
REMARK   63  A    between atoms: _147  and  _148
REMARK   64  A    between atoms: _147  and  _150
REMARK   65  A    between atoms: _150  and  _151
REMARK   66  A    between atoms: _153  and  _155
REMARK   67  A    between atoms: _155  and  _156
REMARK   68  A    between atoms: _155  and  _158
REMARK   69  A    between atoms: _158  and  _159
REMARK   70  A    between atoms: _159  and  _269
REMARK   71  A    between atoms: _160  and  _162
REMARK   72  A    between atoms: _162  and  _163
REMARK   73  A    between atoms: _162  and  _165
REMARK   74  A    between atoms: _165  and  _166
REMARK   75  A    between atoms: _166  and  _167
REMARK   76  A    between atoms: _172  and  _174
REMARK   77  A    between atoms: _174  and  _175
REMARK   78  A    between atoms: _177  and  _179
REMARK   79  A    between atoms: _179  and  _180
REMARK   80  A    between atoms: _179  and  _182
REMARK   81  A    between atoms: _182  and  _183
REMARK   82  A    between atoms: _186  and  _188
REMARK   83  A    between atoms: _188  and  _189
REMARK   84  A    between atoms: _188  and  _191
REMARK   85  A    between atoms: _191  and  _192
REMARK   86  A    between atoms: _194  and  _196
REMARK   87  A    between atoms: _196  and  _197
REMARK   88  A    between atoms: _199  and  _201
REMARK   89  A    between atoms: _201  and  _202
REMARK   90  A    between atoms: _204  and  _206
REMARK   91  A    between atoms: _206  and  _207
REMARK   92  A    between atoms: _206  and  _209
REMARK   93  A    between atoms: _209  and  _210
REMARK   94  A    between atoms: _213  and  _215
REMARK   95  A    between atoms: _215  and  _216
REMARK   96  A    between atoms: _215  and  _218
REMARK   97  A    between atoms: _221  and  _223
REMARK   98  A    between atoms: _223  and  _224
REMARK   99  A    between atoms: _223  and  _226
REMARK  100  A    between atoms: _226  and  _227
REMARK  101  A    between atoms: _229  and  _231
REMARK  102  A    between atoms: _231  and  _232
REMARK  103  A    between atoms: _231  and  _234
REMARK  104  A    between atoms: _234  and  _235
REMARK  105  A    between atoms: _245  and  _247
REMARK  106  A    between atoms: _247  and  _248
REMARK  107  A    between atoms: _250  and  _252
REMARK  108  A    between atoms: _252  and  _253
REMARK  109  A    between atoms: _252  and  _255
REMARK  110  A    between atoms: _255  and  _256
REMARK  111  A    between atoms: _258  and  _260
REMARK  112  A    between atoms: _260  and  _261
REMARK  113  A    between atoms: _263  and  _265
REMARK  114  A    between atoms: _265  and  _266
REMARK  115  A    between atoms: _265  and  _268
REMARK  116  A    between atoms: _268  and  _269
REMARK  117  A    between atoms: _270  and  _272
REMARK  118  A    between atoms: _272  and  _273
REMARK  119  A    between atoms: _276  and  _278
REMARK  120  A    between atoms: _278  and  _279
REMARK  121  A    between atoms: _278  and  _281
REMARK  122  A    between atoms: _281  and  _282
REMARK  123  A    between atoms: _282  and  _283
REMARK  124  A    between atoms: _288  and  _290
REMARK  125  A    between atoms: _290  and  _291
REMARK  126  A    between atoms: _290  and  _293
REMARK  127  A    between atoms: _293  and  _294
REMARK  128  A    between atoms: _294  and  _295
REMARK  129  A    between atoms: _295  and  _296
REMARK  130  A    between atoms: _296  and  _297
REMARK  131  A    between atoms: _302  and  _303
REMARK  132  A    between atoms: _308  and  _310
REMARK  133  A    between atoms: _310  and  _311
REMARK  134  A    between atoms: _313  and  _315
REMARK  135  A    between atoms: _315  and  _316
REMARK  136  A    between atoms: _315  and  _318
REMARK  137  A    between atoms: _321  and  _323
REMARK  138  A    between atoms: _323  and  _324
REMARK  139  A    between atoms: _323  and  _326
REMARK  140  A    between atoms: _326  and  _327
REMARK  141  A    between atoms: _332  and  _333
REMARK  142  A    between atoms: _335  and  _337
REMARK  143  A    between atoms: _337  and  _338
REMARK  144  A    between atoms: _337  and  _340
REMARK  145  A    between atoms: _340  and  _341
REMARK                            x       y       z     vdW  Elec       q    Type
REMARK                         _______ _______ _______ _____ _____    ______ ____
ROOT
ATOM      1  CG  TYR A   1      23.447  12.748   7.524  0.00  0.00    -0.020 A 
ATOM      2  CD2 TYR A   1      24.296  11.736   7.962  0.00  0.00    -0.001 A 
ATOM      3  CE2 TYR A   1      25.482  12.034   8.611  0.00  0.00    +0.036 A 
ATOM      4  CZ  TYR A   1      25.833  13.353   8.842  0.00  0.00    +0.134 A 
ATOM      5  CE1 TYR A   1      25.001  14.383   8.428  0.00  0.00    +0.036 A 
ATOM      6  CD1 TYR A   1      23.811  14.075   7.775  0.00  0.00    -0.001 A 
ENDROOT
BRANCH   4   7
ATOM      7  OH  TYR A   1      27.004  13.624   9.509  0.00  0.00    -0.506 OA
ATOM      8  HH  TYR A   1      26.800  14.112  10.346  0.00  0.00    +0.292 HD
ENDBRANCH   4   7
BRANCH   1   9
ATOM      9  CB  TYR A   1      22.133  12.424   6.848  0.00  0.00    +0.051 C 
BRANCH   9  10
ATOM     10  CA  TYR A   1      22.249  11.894   5.423  0.00  0.00    +0.137 C 
BRANCH  10  11
ATOM     11  N   TYR A   1      22.773  12.940   4.559  0.00  0.00    -0.239 NA
ATOM     12  H   TYR A   1      22.160  13.750   4.336  0.00  0.00    +0.142 HD
ENDBRANCH  10  11
BRANCH  10  13
ATOM     13  C   TYR A   1      20.875  11.416   4.938  0.00  0.00    +0.224 C 
ATOM     14  O   TYR A   1      19.857  11.653   5.601  0.00  0.00    -0.287 OA
ENDBRANCH  10  13
ENDBRANCH   9  10
ENDBRANCH   1   9
TORSDOF 5
REMARK  Name = ../refined-set-2016/3nkk/3nkk_pocket.pdb
REMARK  145 active torsions:
REMARK  status: ('A' for Active; 'I' for Inactive)
REMARK    1  A    between atoms: _1  and  _5
REMARK    2  A    between atoms: _5  and  _6
REMARK    3  A    between atoms: _5  and  _8
REMARK    4  A    between atoms: _8  and  _9
REMARK    5  A    between atoms: _12  and  _14
REMARK    6  A    between atoms: _14  and  _15
REMARK    7  A    between atoms: _14  and  _17
REMARK    8  A    between atoms: _20  and  _22
REMARK    9  A    between atoms: _22  and  _23
REMARK   10  A    between atoms: _22  and  _25
REMARK   11  A    between atoms: _25  and  _26
REMARK   12  A    between atoms: _26  and  _50
REMARK   13  A    between atoms: _27  and  _29
REMARK   14  A    between atoms: _29  and  _30
REMARK   15  A    between atoms: _33  and  _35
REMARK   16  A    between atoms: _35  and  _36
REMARK   17  A    between atoms: _35  and  _38
REMARK   18  A    between atoms: _38  and  _39
REMARK   19  A    between atoms: _44  and  _46
REMARK   20  A    between atoms: _46  and  _47
REMARK   21  A    between atoms: _46  and  _49
REMARK   22  A    between atoms: _49  and  _50
REMARK   23  A    between atoms: _51  and  _53
REMARK   24  A    between atoms: _53  and  _54
REMARK   25  A    between atoms: _53  and  _56
REMARK   26  A    between atoms: _56  and  _57
REMARK   27  A    between atoms: _60  and  _62
REMARK   28  A    between atoms: _62  and  _63
REMARK   29  A    between atoms: _62  and  _65
REMARK   30  A    between atoms: _65  and  _66
REMARK   31  A    between atoms: _69  and  _71
REMARK   32  A    between atoms: _71  and  _72
REMARK   33  A    between atoms: _71  and  _74
REMARK   34  A    between atoms: _74  and  _75
REMARK   35  A    between atoms: _78  and  _80
REMARK   36  A    between atoms: _80  and  _81
REMARK   37  A    between atoms: _80  and  _83
REMARK   38  A    between atoms: _83  and  _84
REMARK   39  A    between atoms: _89  and  _91
REMARK   40  A    between atoms: _91  and  _92
REMARK   41  A    between atoms: _91  and  _94
REMARK   42  A    between atoms: _94  and  _95
REMARK   43  A    between atoms: _100  and  _101
REMARK   44  A    between atoms: _103  and  _105
REMARK   45  A    between atoms: _105  and  _106
REMARK   46  A    between atoms: _105  and  _108
REMARK   47  A    between atoms: _108  and  _109
REMARK   48  A    between atoms: _114  and  _115
REMARK   49  A    between atoms: _117  and  _119
REMARK   50  A    between atoms: _119  and  _120
REMARK   51  A    between atoms: _123  and  _125
REMARK   52  A    between atoms: _125  and  _126
REMARK   53  A    between atoms: _125  and  _128
REMARK   54  A    between atoms: _128  and  _129
REMARK   55  A    between atoms: _129  and  _130
REMARK   56  A    between atoms: _130  and  _131
REMARK   57  A    between atoms: _131  and  _132
REMARK   58  A    between atoms: _136  and  _138
REMARK   59  A    between atoms: _138  and  _139
REMARK   60  A    between atoms: _138  and  _141
REMARK   61  A    between atoms: _141  and  _142
REMARK   62  A    between atoms: _145  and  _147
REMARK   63  A    between atoms: _147  and  _148
REMARK   64  A    between atoms: _147  and  _150
REMARK   65  A    between atoms: _150  and  _151
REMARK   66  A    between atoms: _153  and  _155
REMARK   67  A    between atoms: _155  and  _156
REMARK   68  A    between atoms: _155  and  _158
REMARK   69  A    between atoms: _158  and  _159
REMARK   70  A    between atoms: _159  and  _269
REMARK   71  A    between atoms: _160  and  _162
REMARK   72  A    between atoms: _162  and  _163
REMARK   73  A    between atoms: _162  and  _165
REMARK   74  A    between atoms: _165  and  _166
REMARK   75  A    between atoms: _166  and  _167
REMARK   76  A    between atoms: _172  and  _174
REMARK   77  A    between atoms: _174  and  _175
REMARK   78  A    between atoms: _177  and  _179
REMARK   79  A    between atoms: _179  and  _180
REMARK   80  A    between atoms: _179  and  _182
REMARK   81  A    between atoms: _182  and  _183
REMARK   82  A    between atoms: _186  and  _188
REMARK   83  A    between atoms: _188  and  _189
REMARK   84  A    between atoms: _188  and  _191
REMARK   85  A    between atoms: _191  and  _192
REMARK   86  A    between atoms: _194  and  _196
REMARK   87  A    between atoms: _196  and  _197
REMARK   88  A    between atoms: _199  and  _201
REMARK   89  A    between atoms: _201  and  _202
REMARK   90  A    between atoms: _204  and  _206
REMARK   91  A    between atoms: _206  and  _207
REMARK   92  A    between atoms: _206  and  _209
REMARK   93  A    between atoms: _209  and  _210
REMARK   94  A    between atoms: _213  and  _215
REMARK   95  A    between atoms: _215  and  _216
REMARK   96  A    between atoms: _215  and  _218
REMARK   97  A    between atoms: _221  and  _223
REMARK   98  A    between atoms: _223  and  _224
REMARK   99  A    between atoms: _223  and  _226
REMARK  100  A    between atoms: _226  and  _227
REMARK  101  A    between atoms: _229  and  _231
REMARK  102  A    between atoms: _231  and  _232
REMARK  103  A    between atoms: _231  and  _234
REMARK  104  A    between atoms: _234  and  _235
REMARK  105  A    between atoms: _245  and  _247
REMARK  106  A    between atoms: _247  and  _248
REMARK  107  A    between atoms: _250  and  _252
REMARK  108  A    between atoms: _252  and  _253
REMARK  109  A    between atoms: _252  and  _255
REMARK  110  A    between atoms: _255  and  _256
REMARK  111  A    between atoms: _258  and  _260
REMARK  112  A    between atoms: _260  and  _261
REMARK  113  A    between atoms: _263  and  _265
REMARK  114  A    between atoms: _265  and  _266
REMARK  115  A    between atoms: _265  and  _268
REMARK  116  A    between atoms: _268  and  _269
REMARK  117  A    between atoms: _270  and  _272
REMARK  118  A    between atoms: _272  and  _273
REMARK  119  A    between atoms: _276  and  _278
REMARK  120  A    between atoms: _278  and  _279
REMARK  121  A    between atoms: _278  and  _281
REMARK  122  A    between atoms: _281  and  _282
REMARK  123  A    between atoms: _282  and  _283
REMARK  124  A    between atoms: _288  and  _290
REMARK  125  A    between atoms: _290  and  _291
REMARK  126  A    between atoms: _290  and  _293
REMARK  127  A    between atoms: _293  and  _294
REMARK  128  A    between atoms: _294  and  _295
REMARK  129  A    between atoms: _295  and  _296
REMARK  130  A    between atoms: _296  and  _297
REMARK  131  A    between atoms: _302  and  _303
REMARK  132  A    between atoms: _308  and  _310
REMARK  133  A    between atoms: _310  and  _311
REMARK  134  A    between atoms: _313  and  _315
REMARK  135  A    between atoms: _315  and  _316
REMARK  136  A    between atoms: _315  and  _318
REMARK  137  A    between atoms: _321  and  _323
REMARK  138  A    between atoms: _323  and  _324
REMARK  139  A    between atoms: _323  and  _326
REMARK  140  A    between atoms: _326  and  _327
REMARK  141  A    between atoms: _332  and  _333
REMARK  142  A    between atoms: _335  and  _337
REMARK  143  A    between atoms: _337  and  _338
REMARK  144  A    between atoms: _337  and  _340
REMARK  145  A    between atoms: _340  and  _341
REMARK                            x       y       z     vdW  Elec       q    Type
REMARK                         _______ _______ _______ _____ _____    ______ ____
ROOT
ATOM      1  CA  ALA A   1      25.637  23.000  10.437  0.00  0.00    +0.133 C 
ATOM      2  CB  ALA A   1      25.406  23.824  11.702  0.00  0.00    +0.027 C 
ENDROOT
BRANCH   1   3
ATOM      3  N   ALA A   1      24.811  21.808  10.426  0.00  0.00    -0.239 NA
ATOM      4  H   ALA A   1      25.173  20.933  10.856  0.00  0.00    +0.142 HD
ENDBRANCH   1   3
BRANCH   1   5
ATOM      5  C   ALA A   1      27.081  22.570  10.314  0.00  0.00    +0.224 C 
ATOM      6  O   ALA A   1      27.453  21.471  10.751  0.00  0.00    -0.287 OA
ENDBRANCH   1   5
TORSDOF 2
REMARK  Name = ../refined-set-2016/3nkk/3nkk_pocket.pdb
REMARK  145 active torsions:
REMARK  status: ('A' for Active; 'I' for Inactive)
REMARK    1  A    between atoms: _1  and  _5
REMARK    2  A    between atoms: _5  and  _6
REMARK    3  A    between atoms: _5  and  _8
REMARK    4  A    between atoms: _8  and  _9
REMARK    5  A    between atoms: _12  and  _14
REMARK    6  A    between atoms: _14  and  _15
REMARK    7  A    between atoms: _14  and  _17
REMARK    8  A    between atoms: _20  and  _22
REMARK    9  A    between atoms: _22  and  _23
REMARK   10  A    between atoms: _22  and  _25
REMARK   11  A    between atoms: _25  and  _26
REMARK   12  A    between atoms: _26  and  _50
REMARK   13  A    between atoms: _27  and  _29
REMARK   14  A    between atoms: _29  and  _30
REMARK   15  A    between atoms: _33  and  _35
REMARK   16  A    between atoms: _35  and  _36
REMARK   17  A    between atoms: _35  and  _38
REMARK   18  A    between atoms: _38  and  _39
REMARK   19  A    between atoms: _44  and  _46
REMARK   20  A    between atoms: _46  and  _47
REMARK   21  A    between atoms: _46  and  _49
REMARK   22  A    between atoms: _49  and  _50
REMARK   23  A    between atoms: _51  and  _53
REMARK   24  A    between atoms: _53  and  _54
REMARK   25  A    between atoms: _53  and  _56
REMARK   26  A    between atoms: _56  and  _57
REMARK   27  A    between atoms: _60  and  _62
REMARK   28  A    between atoms: _62  and  _63
REMARK   29  A    between atoms: _62  and  _65
REMARK   30  A    between atoms: _65  and  _66
REMARK   31  A    between atoms: _69  and  _71
REMARK   32  A    between atoms: _71  and  _72
REMARK   33  A    between atoms: _71  and  _74
REMARK   34  A    between atoms: _74  and  _75
REMARK   35  A    between atoms: _78  and  _80
REMARK   36  A    between atoms: _80  and  _81
REMARK   37  A    between atoms: _80  and  _83
REMARK   38  A    between atoms: _83  and  _84
REMARK   39  A    between atoms: _89  and  _91
REMARK   40  A    between atoms: _91  and  _92
REMARK   41  A    between atoms: _91  and  _94
REMARK   42  A    between atoms: _94  and  _95
REMARK   43  A    between atoms: _100  and  _101
REMARK   44  A    between atoms: _103  and  _105
REMARK   45  A    between atoms: _105  and  _106
REMARK   46  A    between atoms: _105  and  _108
REMARK   47  A    between atoms: _108  and  _109
REMARK   48  A    between atoms: _114  and  _115
REMARK   49  A    between atoms: _117  and  _119
REMARK   50  A    between atoms: _119  and  _120
REMARK   51  A    between atoms: _123  and  _125
REMARK   52  A    between atoms: _125  and  _126
REMARK   53  A    between atoms: _125  and  _128
REMARK   54  A    between atoms: _128  and  _129
REMARK   55  A    between atoms: _129  and  _130
REMARK   56  A    between atoms: _130  and  _131
REMARK   57  A    between atoms: _131  and  _132
REMARK   58  A    between atoms: _136  and  _138
REMARK   59  A    between atoms: _138  and  _139
REMARK   60  A    between atoms: _138  and  _141
REMARK   61  A    between atoms: _141  and  _142
REMARK   62  A    between atoms: _145  and  _147
REMARK   63  A    between atoms: _147  and  _148
REMARK   64  A    between atoms: _147  and  _150
REMARK   65  A    between atoms: _150  and  _151
REMARK   66  A    between atoms: _153  and  _155
REMARK   67  A    between atoms: _155  and  _156
REMARK   68  A    between atoms: _155  and  _158
REMARK   69  A    between atoms: _158  and  _159
REMARK   70  A    between atoms: _159  and  _269
REMARK   71  A    between atoms: _160  and  _162
REMARK   72  A    between atoms: _162  and  _163
REMARK   73  A    between atoms: _162  and  _165
REMARK   74  A    between atoms: _165  and  _166
REMARK   75  A    between atoms: _166  and  _167
REMARK   76  A    between atoms: _172  and  _174
REMARK   77  A    between atoms: _174  and  _175
REMARK   78  A    between atoms: _177  and  _179
REMARK   79  A    between atoms: _179  and  _180
REMARK   80  A    between atoms: _179  and  _182
REMARK   81  A    between atoms: _182  and  _183
REMARK   82  A    between atoms: _186  and  _188
REMARK   83  A    between atoms: _188  and  _189
REMARK   84  A    between atoms: _188  and  _191
REMARK   85  A    between atoms: _191  and  _192
REMARK   86  A    between atoms: _194  and  _196
REMARK   87  A    between atoms: _196  and  _197
REMARK   88  A    between atoms: _199  and  _201
REMARK   89  A    between atoms: _201  and  _202
REMARK   90  A    between atoms: _204  and  _206
REMARK   91  A    between atoms: _206  and  _207
REMARK   92  A    between atoms: _206  and  _209
REMARK   93  A    between atoms: _209  and  _210
REMARK   94  A    between atoms: _213  and  _215
REMARK   95  A    between atoms: _215  and  _216
REMARK   96  A    between atoms: _215  and  _218
REMARK   97  A    between atoms: _221  and  _223
REMARK   98  A    between atoms: _223  and  _224
REMARK   99  A    between atoms: _223  and  _226
REMARK  100  A    between atoms: _226  and  _227
REMARK  101  A    between atoms: _229  and  _231
REMARK  102  A    between atoms: _231  and  _232
REMARK  103  A    between atoms: _231  and  _234
REMARK  104  A    between atoms: _234  and  _235
REMARK  105  A    between atoms: _245  and  _247
REMARK  106  A    between atoms: _247  and  _248
REMARK  107  A    between atoms: _250  and  _252
REMARK  108  A    between atoms: _252  and  _253
REMARK  109  A    between atoms: _252  and  _255
REMARK  110  A    between atoms: _255  and  _256
REMARK  111  A    between atoms: _258  and  _260
REMARK  112  A    between atoms: _260  and  _261
REMARK  113  A    between atoms: _263  and  _265
REMARK  114  A    between atoms: _265  and  _266
REMARK  115  A    between atoms: _265  and  _268
REMARK  116  A    between atoms: _268  and  _269
REMARK  117  A    between atoms: _270  and  _272
REMARK  118  A    between atoms: _272  and  _273
REMARK  119  A    between atoms: _276  and  _278
REMARK  120  A    between atoms: _278  and  _279
REMARK  121  A    between atoms: _278  and  _281
REMARK  122  A    between atoms: _281  and  _282
REMARK  123  A    between atoms: _282  and  _283
REMARK  124  A    between atoms: _288  and  _290
REMARK  125  A    between atoms: _290  and  _291
REMARK  126  A    between atoms: _290  and  _293
REMARK  127  A    between atoms: _293  and  _294
REMARK  128  A    between atoms: _294  and  _295
REMARK  129  A    between atoms: _295  and  _296
REMARK  130  A    between atoms: _296  and  _297
REMARK  131  A    between atoms: _302  and  _303
REMARK  132  A    between atoms: _308  and  _310
REMARK  133  A    between atoms: _310  and  _311
REMARK  134  A    between atoms: _313  and  _315
REMARK  135  A    between atoms: _315  and  _316
REMARK  136  A    between atoms: _315  and  _318
REMARK  137  A    between atoms: _321  and  _323
REMARK  138  A    between atoms: _323  and  _324
REMARK  139  A    between atoms: _323  and  _326
REMARK  140  A    between atoms: _326  and  _327
REMARK  141  A    between atoms: _332  and  _333
REMARK  142  A    between atoms: _335  and  _337
REMARK  143  A    between atoms: _337  and  _338
REMARK  144  A    between atoms: _337  and  _340
REMARK  145  A    between atoms: _340  and  _341
REMARK                            x       y       z     vdW  Elec       q    Type
REMARK                         _______ _______ _______ _____ _____    ______ ____
ROOT
ATOM      1  CB  CYS A   8      34.192  14.343  14.528  0.00  0.00    +0.098 C 
ENDROOT
BRANCH   1   2
ATOM      2  SG  CYS A   8      33.476  13.495  15.901  0.00  0.00    -0.080 S 
BRANCH   2   3
ATOM      3  SG  TRP A   4      34.653  14.069  17.435  0.00  0.00    -0.080 S 
BRANCH   3   4
ATOM      4  CB  TRP A   4      33.980  15.679  17.917  0.00  0.00    +0.098 C 
BRANCH   4   5
ATOM      5  CA  TRP A   4      32.451  15.731  18.116  0.00  0.00    +0.160 C 
BRANCH   5   6
ATOM      6  C   TRP A   4      32.000  15.106  19.442  0.00  0.00    +0.242 C 
ATOM      7  O   TRP A   4      31.321  15.752  20.241  0.00  0.00    -0.273 OA
ATOM      8  N   GLY A   5      32.359  13.844  19.666  0.00  0.00    -0.297 N 
ATOM      9  H   GLY A   5      32.882  13.331  18.928  0.00  0.00    +0.150 HD
BRANCH   8  10
ATOM     10  CA  GLY A   5      32.040  13.156  20.919  0.00  0.00    +0.149 C 
BRANCH  10  11
ATOM     11  C   GLY A   5      32.453  14.009  22.120  0.00  0.00    +0.241 C 
ATOM     12  N   SER A   6      31.559  14.126  23.100  0.00  0.00    -0.295 N 
ATOM     13  H   SER A   6      30.653  13.622  23.016  0.00  0.00    +0.150 HD
ATOM     14  O   GLY A   5      33.552  14.559  22.148  0.00  0.00    -0.273 OA
BRANCH  12  15
ATOM     15  CA  SER A   6      31.807  14.937  24.287  0.00  0.00    +0.176 C 
BRANCH  15  16
ATOM     16  C   SER A   6      31.252  16.350  24.189  0.00  0.00    +0.243 C 
ATOM     17  O   SER A   6      31.114  17.034  25.209  0.00  0.00    -0.273 OA
ATOM     18  N   GLY A   7      30.937  16.792  22.965  0.00  0.00    -0.296 N 
ATOM     19  H   GLY A   7      31.190  16.210  22.141  0.00  0.00    +0.150 HD
BRANCH  18  20
ATOM     20  CA  GLY A   7      30.250  18.064  22.745  0.00  0.00    +0.160 C 
BRANCH  20  21
ATOM     21  C   GLY A   7      28.738  17.917  22.874  0.00  0.00    +0.241 C 
ATOM     22  O   GLY A   7      28.037  18.927  23.000  0.00  0.00    -0.273 OA
ATOM     23  N   CYS A   8      28.247  16.674  22.820  0.00  0.00    -0.295 N 
ATOM     24  H   CYS A   8      28.925  15.902  22.656  0.00  0.00    +0.150 HD
BRANCH  23  25
ATOM     25  CA  CYS A   8      26.837  16.306  22.972  0.00  0.00    +0.178 C 
BRANCH  25  26
ATOM     26  C   CYS A   8      26.112  17.175  23.958  0.00  0.00    +0.243 C 
ATOM     27  O   CYS A   8      26.576  17.356  25.081  0.00  0.00    -0.273 OA
ATOM     28  N   ALA A   9      24.950  17.681  23.559  0.00  0.00    -0.295 N 
ATOM     29  H   ALA A   9      24.634  17.526  22.580  0.00  0.00    +0.150 HD
BRANCH  28  30
ATOM     30  CA  ALA A   9      24.115  18.446  24.465  0.00  0.00    +0.176 C 
BRANCH  30  31
ATOM     31  C   ALA A   9      24.419  19.926  24.518  0.00  0.00    +0.243 C 
ATOM     32  O   ALA A   9      23.627  20.685  25.070  0.00  0.00    -0.273 OA
ATOM     33  N   GLN A  10      25.560  20.337  23.959  0.00  0.00    -0.296 N 
ATOM     34  H   GLN A  10      26.161  19.645  23.467  0.00  0.00    +0.150 HD
BRANCH  33  35
ATOM     35  CA  GLN A  10      25.982  21.719  24.020  0.00  0.00    +0.163 C 
BRANCH  35  36
ATOM     36  C   GLN A  10      25.284  22.623  23.032  0.00  0.00    +0.229 C 
ATOM     37  O   GLN A  10      24.505  22.170  22.192  0.00  0.00    -0.286 OA
ENDBRANCH  35  36
ENDBRANCH  33  35
ENDBRANCH  30  31
ENDBRANCH  28  30
ENDBRANCH  25  26
BRANCH  25  38
ATOM     38  CB  CYS A   8      26.733  14.878  23.511  0.00  0.00    +0.166 C 
BRANCH  38  39
ATOM     39  O   CYS A   8      27.098  13.934  22.544  0.00  0.00    -0.380 OA
ATOM     40  H   CYS A   8      27.019  13.024  22.926  0.00  0.00    +0.211 HD
ENDBRANCH  38  39
ENDBRANCH  25  38
ENDBRANCH  23  25
ENDBRANCH  20  21
BRANCH  20  41
ATOM     41  CB  GLY A   7      30.589  18.646  21.375  0.00  0.00    +0.143 C 
BRANCH  41  42
ATOM     42  CG  GLY A   7      32.040  19.076  21.268  0.00  0.00    +0.367 C 
ATOM     43  OD2 GLY A   7      32.574  19.647  22.249  0.00  0.00    -0.246 OA
ATOM     44  OD1 GLY A   7      32.642  18.845  20.196  0.00  0.00    -0.246 OA
ENDBRANCH  41  42
ENDBRANCH  20  41
ENDBRANCH  18  20
ENDBRANCH  15  16
ENDBRANCH  12  15
ENDBRANCH  10  11
BRANCH  10  45
ATOM     45  CB  GLY A   5      32.738  11.795  20.981  0.00  0.00    +0.039 C 
BRANCH  45  46
ATOM     46  CG  GLY A   5      32.012  10.646  20.267  0.00  0.00    +0.087 C 
BRANCH  46  47
ATOM     47  CD  GLY A   5      32.045  10.721  18.747  0.00  0.00    +0.219 C 
ATOM     48  OE1 GLY A   5      33.035  11.138  18.147  0.00  0.00    -0.275 OA
ATOM     49  NE2 GLY A   5      30.963  10.280  18.118  0.00  0.00    -0.329 N 
ATOM     50 HE21 GLY A   5      30.148   9.936  18.665  0.00  0.00    +0.145 HD
ATOM     51 HE22 GLY A   5      30.930  10.278  17.079  0.00  0.00    +0.145 HD
ENDBRANCH  46  47
ENDBRANCH  45  46
ENDBRANCH  10  45
ENDBRANCH   8  10
ENDBRANCH   5   6
BRANCH   5  53
ATOM     52  C   SER A   3      31.890  17.710  16.845  0.00  0.00    +0.243 C 
ATOM     53  N   TRP A   4      32.003  17.109  18.024  0.00  0.00    -0.296 N 
ATOM     54  H   TRP A   4      31.768  17.632  18.892  0.00  0.00    +0.150 HD
ATOM     55  O   SER A   3      32.030  17.107  15.774  0.00  0.00    -0.273 OA
BRANCH  52  56
ATOM     56  CA  SER A   3      31.582  19.212  16.863  0.00  0.00    +0.178 C 
BRANCH  56  59
ATOM     57  C   VAL A   2      32.824  19.988  14.938  0.00  0.00    +0.241 C 
ATOM     58  O   VAL A   2      33.857  20.140  15.599  0.00  0.00    -0.273 OA
ATOM     59  N   SER A   3      31.649  19.725  15.501  0.00  0.00    -0.295 N 
ATOM     60  H   SER A   3      30.772  19.886  14.966  0.00  0.00    +0.150 HD
BRANCH  57  61
ATOM     61  CA  VAL A   2      32.848  20.098  13.423  0.00  0.00    +0.160 C 
BRANCH  61  63
ATOM     62  C   ILE A   1      34.263  21.170  11.751  0.00  0.00    +0.238 C 
ATOM     63  N   VAL A   2      34.102  20.730  13.003  0.00  0.00    -0.297 N 
ATOM     64  H   VAL A   2      34.877  20.838  13.688  0.00  0.00    +0.150 HD
ATOM     65  O   ILE A   1      33.349  21.166  10.917  0.00  0.00    -0.274 OA
BRANCH  62  66
ATOM     66  CA  ILE A   1      35.646  21.674  11.351  0.00  0.00    +0.145 C 
BRANCH  66  67
ATOM     67  N   ILE A   1      36.171  20.811  10.283  0.00  0.00    -0.238 NA
ATOM     68  H   ILE A   1      35.527  20.504   9.526  0.00  0.00    +0.142 HD
ENDBRANCH  66  67
BRANCH  66  69
ATOM     69  CB  ILE A   1      35.569  23.125  10.869  0.00  0.00    +0.026 C 
BRANCH  69  70
ATOM     70  CG  ILE A   1      36.924  23.783  10.646  0.00  0.00    -0.000 C 
BRANCH  70  71
ATOM     71  CD  ILE A   1      36.830  25.303  10.515  0.00  0.00    -0.024 C 
BRANCH  71  72
ATOM     72  CE  ILE A   1      36.244  25.755   9.184  0.00  0.00    -0.086 C 
BRANCH  72  73
ATOM     73  NZ  ILE A   1      36.314  27.239   9.058  0.00  0.00    +0.380 N 
ATOM     74  HZ1 ILE A   1      35.774  27.677   9.831  0.00  0.00    -0.089 HD
ATOM     75  HZ2 ILE A   1      37.307  27.544   9.111  0.00  0.00    -0.089 HD
ATOM     76  HZ3 ILE A   1      35.910  27.528   8.144  0.00  0.00    -0.089 HD
ENDBRANCH  72  73
ENDBRANCH  71  72
ENDBRANCH  70  71
ENDBRANCH  69  70
ENDBRANCH  66  69
ENDBRANCH  62  66
ENDBRANCH  61  63
BRANCH  61  77
ATOM     77  CB  VAL A   2      32.794  18.698  12.789  0.00  0.00    +0.143 C 
BRANCH  77  78
ATOM     78  CG  VAL A   2      31.402  18.053  12.772  0.00  0.00    +0.367 C 
ATOM     79  OD2 VAL A   2      30.390  18.668  13.182  0.00  0.00    -0.246 OA
ATOM     80  OD1 VAL A   2      31.350  16.889  12.306  0.00  0.00    -0.246 OA
ENDBRANCH  77  78
ENDBRANCH  61  77
ENDBRANCH  57  61
ENDBRANCH  56  59
BRANCH  56  81
ATOM     81  CB  SER A   3      30.237  19.525  17.529  0.00  0.00    +0.166 C 
BRANCH  81  82
ATOM     82  OG  SER A   3      29.153  19.016  16.782  0.00  0.00    -0.380 OA
ATOM     83  H   SER A   3      29.156  19.422  15.879  0.00  0.00    +0.211 HD
ENDBRANCH  81  82
ENDBRANCH  56  81
ENDBRANCH  52  56
ENDBRANCH   5  53
ENDBRANCH   4   5
ENDBRANCH   3   4
ENDBRANCH   2   3
ENDBRANCH   1   2
BRANCH   1  84
ATOM     84  CA  CYS A   8      33.524  14.049  13.191  0.00  0.00    +0.160 C 
BRANCH  84  85
ATOM     85  C   CYS A   8      34.379  14.663  12.112  0.00  0.00    +0.242 C 
ATOM     86  O   CYS A   8      35.412  14.098  11.743  0.00  0.00    -0.273 OA
ATOM     87  N   ALA A   9      33.950  15.819  11.615  0.00  0.00    -0.297 N 
ATOM     88  H   ALA A   9      33.018  16.178  11.907  0.00  0.00    +0.150 HD
BRANCH  87  89
ATOM     89  CA  ALA A   9      34.747  16.603  10.670  0.00  0.00    +0.149 C 
ATOM     90  CB  ALA A   9      36.018  17.163  11.337  0.00  0.00    +0.031 C 
BRANCH  89  91
ATOM     91  C   ALA A   9      35.068  15.861   9.372  0.00  0.00    +0.241 C 
ATOM     92  N   GLN A  10      34.241  14.877   9.026  0.00  0.00    -0.298 N 
ATOM     93  H   GLN A  10      33.439  14.644   9.646  0.00  0.00    +0.150 HD
ATOM     94  O   ALA A   9      36.037  16.191   8.687  0.00  0.00    -0.273 OA
BRANCH  92  95
ATOM     95  CA  GLN A  10      34.436  14.119   7.796  0.00  0.00    +0.137 C 
BRANCH  95  96
ATOM     96  C   GLN A  10      33.784  14.836   6.626  0.00  0.00    +0.227 C 
ATOM     97  O   GLN A  10      32.738  15.473   6.781  0.00  0.00    -0.286 OA
ENDBRANCH  95  96
BRANCH  95  98
ATOM     98  CB  GLN A  10      33.840  12.713   7.925  0.00  0.00    +0.037 C 
BRANCH  98  99
ATOM     99  CG  GLN A  10      34.407  11.894   9.081  0.00  0.00    +0.087 C 
BRANCH  99 100
ATOM    100  CD  GLN A  10      35.897  11.669   8.960  0.00  0.00    +0.219 C 
ATOM    101  NE2 GLN A  10      36.671  12.261   9.866  0.00  0.00    -0.329 N 
ATOM    102 HE21 GLN A  10      36.244  12.851  10.609  0.00  0.00    +0.145 HD
ATOM    103 HE22 GLN A  10      37.703  12.134   9.831  0.00  0.00    +0.145 HD
ATOM    104  OE1 GLN A  10      36.347  10.964   8.064  0.00  0.00    -0.275 OA
ENDBRANCH  99 100
ENDBRANCH  98  99
ENDBRANCH  95  98
ENDBRANCH  92  95
ENDBRANCH  89  91
ENDBRANCH  87  89
ENDBRANCH  84  85
BRANCH  84 105
ATOM    105  N   CYS A   8      33.408  12.609  12.957  0.00  0.00    -0.296 N 
ATOM    106  C   GLY A   7      32.280  11.927  13.151  0.00  0.00    +0.243 C 
ATOM    107  O   GLY A   7      31.246  12.441  13.587  0.00  0.00    -0.273 OA
ATOM    108  H   CYS A   8      34.247  12.093  12.623  0.00  0.00    +0.150 HD
BRANCH 106 109
ATOM    109  CA  GLY A   7      32.324  10.445  12.782  0.00  0.00    +0.176 C 
BRANCH 109 110
ATOM    110  N   GLY A   7      30.971  10.034  12.407  0.00  0.00    -0.295 N 
ATOM    111  H   GLY A   7      30.502   9.297  12.972  0.00  0.00    +0.150 HD
ATOM    112  C   SER A   6      30.312  10.561  11.374  0.00  0.00    +0.243 C 
ATOM    113  O   SER A   6      30.845  11.274  10.521  0.00  0.00    -0.273 OA
BRANCH 112 114
ATOM    114  CA  SER A   6      28.826  10.230  11.282  0.00  0.00    +0.178 C 
BRANCH 114 115
ATOM    115  N   SER A   6      28.042  11.430  11.547  0.00  0.00    -0.295 N 
ATOM    116  C   GLY A   5      27.591  11.684  12.769  0.00  0.00    +0.243 C 
ATOM    117  O   GLY A   5      27.733  10.897  13.702  0.00  0.00    -0.273 OA
ATOM    118  H   SER A   6      27.834  12.092  10.772  0.00  0.00    +0.150 HD
BRANCH 116 119
ATOM    119  CA  GLY A   5      26.871  12.997  12.985  0.00  0.00    +0.176 C 
BRANCH 119 120
ATOM    120  N   GLY A   5      26.204  12.889  14.272  0.00  0.00    -0.295 N 
ATOM    121  C   TRP A   4      25.607  13.906  14.883  0.00  0.00    +0.241 C 
ATOM    122  O   TRP A   4      25.640  15.068  14.465  0.00  0.00    -0.273 OA
ATOM    123  H   GLY A   5      26.194  11.961  14.742  0.00  0.00    +0.150 HD
BRANCH 121 124
ATOM    124  CA  TRP A   4      24.865  13.539  16.159  0.00  0.00    +0.153 C 
BRANCH 124 125
ATOM    125  N   TRP A   4      24.203  14.689  16.768  0.00  0.00    -0.297 N 
ATOM    126  C   SER A   3      23.843  14.654  18.051  0.00  0.00    +0.243 C 
ATOM    127  O   SER A   3      24.119  13.704  18.784  0.00  0.00    -0.273 OA
ATOM    128  H   TRP A   4      24.012  15.538  16.199  0.00  0.00    +0.150 HD
BRANCH 126 129
ATOM    129  CA  SER A   3      23.076  15.853  18.625  0.00  0.00    +0.178 C 
BRANCH 129 130
ATOM    130  N   SER A   3      23.846  17.094  18.620  0.00  0.00    -0.295 N 
ATOM    131  C   VAL A   2      24.139  17.751  19.745  0.00  0.00    +0.241 C 
ATOM    132  O   VAL A   2      23.931  17.282  20.872  0.00  0.00    -0.273 OA
ATOM    133  H   SER A   3      24.176  17.478  17.712  0.00  0.00    +0.150 HD
BRANCH 131 134
ATOM    134  CA  VAL A   2      24.763  19.135  19.589  0.00  0.00    +0.148 C 
BRANCH 134 135
ATOM    135  N   VAL A   2      23.892  20.135  20.189  0.00  0.00    -0.297 N 
ATOM    136  H   VAL A   2      24.256  20.728  20.962  0.00  0.00    +0.150 HD
ATOM    137  C   ILE A   1      22.638  20.307  19.770  0.00  0.00    +0.238 C 
ATOM    138  O   ILE A   1      22.143  19.656  18.846  0.00  0.00    -0.274 OA
BRANCH 137 139
ATOM    139  CA  ILE A   1      21.802  21.352  20.497  0.00  0.00    +0.145 C 
BRANCH 139 140
ATOM    140  N   ILE A   1      21.160  22.176  19.483  0.00  0.00    -0.238 NA
ATOM    141  H   ILE A   1      20.607  21.695  18.745  0.00  0.00    +0.142 HD
ENDBRANCH 139 140
BRANCH 139 142
ATOM    142  CB  ILE A   1      20.751  20.634  21.371  0.00  0.00    +0.025 C 
ATOM    143  CG2 ILE A   1      21.408  19.707  22.387  0.00  0.00    +0.002 C 
BRANCH 142 144
ATOM    144  CG1 ILE A   1      19.852  21.649  22.067  0.00  0.00    +0.002 C 
ATOM    145  CD1 ILE A   1      18.583  21.036  22.609  0.00  0.00    +0.000 C 
ENDBRANCH 142 144
ENDBRANCH 139 142
ENDBRANCH 137 139
ENDBRANCH 134 135
BRANCH 134 146
ATOM    146  CB  VAL A   2      26.172  19.156  20.230  0.00  0.00    +0.027 C 
ATOM    147  CG2 VAL A   2      26.837  20.530  20.104  0.00  0.00    +0.002 C 
ATOM    148  CG1 VAL A   2      27.050  18.097  19.615  0.00  0.00    +0.002 C 
ENDBRANCH 134 146
ENDBRANCH 131 134
ENDBRANCH 129 130
BRANCH 129 149
ATOM    149  CB  SER A   3      21.703  16.064  17.953  0.00  0.00    +0.166 C 
BRANCH 149 150
ATOM    150  OG  SER A   3      20.922  14.887  18.007  0.00  0.00    -0.380 OA
ATOM    151  H   SER A   3      20.776  14.632  18.952  0.00  0.00    +0.211 HD
ENDBRANCH 149 150
ENDBRANCH 129 149
ENDBRANCH 126 129
ENDBRANCH 124 125
BRANCH 124 152
ATOM    152  CB  TRP A   4      23.860  12.402  15.907  0.00  0.00    +0.057 C 
BRANCH 152 153
ATOM    153  CG  TRP A   4      22.751  12.692  14.930  0.00  0.00    -0.002 A 
ATOM    154  CD1 TRP A   4      21.557  13.313  15.201  0.00  0.00    +0.068 A 
ATOM    155  NE1 TRP A   4      20.767  13.340  14.075  0.00  0.00    -0.352 N 
ATOM    156  HE1 TRP A   4      19.813  13.749  14.015  0.00  0.00    +0.166 HD
ATOM    157  CE2 TRP A   4      21.442  12.741  13.047  0.00  0.00    +0.056 A 
ATOM    158  CZ2 TRP A   4      21.044  12.516  11.725  0.00  0.00    +0.017 A 
ATOM    159  CH2 TRP A   4      21.924  11.863  10.905  0.00  0.00    +0.001 A 
ATOM    160  CZ3 TRP A   4      23.174  11.417  11.368  0.00  0.00    +0.000 A 
ATOM    161  CE3 TRP A   4      23.568  11.625  12.689  0.00  0.00    +0.001 A 
ATOM    162  CD2 TRP A   4      22.694  12.306  13.549  0.00  0.00    +0.013 A 
ENDBRANCH 152 153
ENDBRANCH 124 152
ENDBRANCH 121 124
ENDBRANCH 119 120
ENDBRANCH 116 119
ENDBRANCH 114 115
BRANCH 114 163
ATOM    163  CB  SER A   6      28.493   9.659   9.909  0.00  0.00    +0.166 C 
BRANCH 163 164
ATOM    164  OG  SER A   6      29.361   8.589   9.594  0.00  0.00    -0.380 OA
ATOM    165  H   SER A   6      29.262   7.875  10.272  0.00  0.00    +0.211 HD
ENDBRANCH 163 164
ENDBRANCH 114 163
ENDBRANCH 112 114
ENDBRANCH 109 110
ENDBRANCH 106 109
ENDBRANCH  84 105
ENDBRANCH   1  84
TORSDOF 73
REMARK  Name = ../refined-set-2016/3nkk/3nkk_pocket.pdb
REMARK  145 active torsions:
REMARK  status: ('A' for Active; 'I' for Inactive)
REMARK    1  A    between atoms: _1  and  _5
REMARK    2  A    between atoms: _5  and  _6
REMARK    3  A    between atoms: _5  and  _8
REMARK    4  A    between atoms: _8  and  _9
REMARK    5  A    between atoms: _12  and  _14
REMARK    6  A    between atoms: _14  and  _15
REMARK    7  A    between atoms: _14  and  _17
REMARK    8  A    between atoms: _20  and  _22
REMARK    9  A    between atoms: _22  and  _23
REMARK   10  A    between atoms: _22  and  _25
REMARK   11  A    between atoms: _25  and  _26
REMARK   12  A    between atoms: _26  and  _50
REMARK   13  A    between atoms: _27  and  _29
REMARK   14  A    between atoms: _29  and  _30
REMARK   15  A    between atoms: _33  and  _35
REMARK   16  A    between atoms: _35  and  _36
REMARK   17  A    between atoms: _35  and  _38
REMARK   18  A    between atoms: _38  and  _39
REMARK   19  A    between atoms: _44  and  _46
REMARK   20  A    between atoms: _46  and  _47
REMARK   21  A    between atoms: _46  and  _49
REMARK   22  A    between atoms: _49  and  _50
REMARK   23  A    between atoms: _51  and  _53
REMARK   24  A    between atoms: _53  and  _54
REMARK   25  A    between atoms: _53  and  _56
REMARK   26  A    between atoms: _56  and  _57
REMARK   27  A    between atoms: _60  and  _62
REMARK   28  A    between atoms: _62  and  _63
REMARK   29  A    between atoms: _62  and  _65
REMARK   30  A    between atoms: _65  and  _66
REMARK   31  A    between atoms: _69  and  _71
REMARK   32  A    between atoms: _71  and  _72
REMARK   33  A    between atoms: _71  and  _74
REMARK   34  A    between atoms: _74  and  _75
REMARK   35  A    between atoms: _78  and  _80
REMARK   36  A    between atoms: _80  and  _81
REMARK   37  A    between atoms: _80  and  _83
REMARK   38  A    between atoms: _83  and  _84
REMARK   39  A    between atoms: _89  and  _91
REMARK   40  A    between atoms: _91  and  _92
REMARK   41  A    between atoms: _91  and  _94
REMARK   42  A    between atoms: _94  and  _95
REMARK   43  A    between atoms: _100  and  _101
REMARK   44  A    between atoms: _103  and  _105
REMARK   45  A    between atoms: _105  and  _106
REMARK   46  A    between atoms: _105  and  _108
REMARK   47  A    between atoms: _108  and  _109
REMARK   48  A    between atoms: _114  and  _115
REMARK   49  A    between atoms: _117  and  _119
REMARK   50  A    between atoms: _119  and  _120
REMARK   51  A    between atoms: _123  and  _125
REMARK   52  A    between atoms: _125  and  _126
REMARK   53  A    between atoms: _125  and  _128
REMARK   54  A    between atoms: _128  and  _129
REMARK   55  A    between atoms: _129  and  _130
REMARK   56  A    between atoms: _130  and  _131
REMARK   57  A    between atoms: _131  and  _132
REMARK   58  A    between atoms: _136  and  _138
REMARK   59  A    between atoms: _138  and  _139
REMARK   60  A    between atoms: _138  and  _141
REMARK   61  A    between atoms: _141  and  _142
REMARK   62  A    between atoms: _145  and  _147
REMARK   63  A    between atoms: _147  and  _148
REMARK   64  A    between atoms: _147  and  _150
REMARK   65  A    between atoms: _150  and  _151
REMARK   66  A    between atoms: _153  and  _155
REMARK   67  A    between atoms: _155  and  _156
REMARK   68  A    between atoms: _155  and  _158
REMARK   69  A    between atoms: _158  and  _159
REMARK   70  A    between atoms: _159  and  _269
REMARK   71  A    between atoms: _160  and  _162
REMARK   72  A    between atoms: _162  and  _163
REMARK   73  A    between atoms: _162  and  _165
REMARK   74  A    between atoms: _165  and  _166
REMARK   75  A    between atoms: _166  and  _167
REMARK   76  A    between atoms: _172  and  _174
REMARK   77  A    between atoms: _174  and  _175
REMARK   78  A    between atoms: _177  and  _179
REMARK   79  A    between atoms: _179  and  _180
REMARK   80  A    between atoms: _179  and  _182
REMARK   81  A    between atoms: _182  and  _183
REMARK   82  A    between atoms: _186  and  _188
REMARK   83  A    between atoms: _188  and  _189
REMARK   84  A    between atoms: _188  and  _191
REMARK   85  A    between atoms: _191  and  _192
REMARK   86  A    between atoms: _194  and  _196
REMARK   87  A    between atoms: _196  and  _197
REMARK   88  A    between atoms: _199  and  _201
REMARK   89  A    between atoms: _201  and  _202
REMARK   90  A    between atoms: _204  and  _206
REMARK   91  A    between atoms: _206  and  _207
REMARK   92  A    between atoms: _206  and  _209
REMARK   93  A    between atoms: _209  and  _210
REMARK   94  A    between atoms: _213  and  _215
REMARK   95  A    between atoms: _215  and  _216
REMARK   96  A    between atoms: _215  and  _218
REMARK   97  A    between atoms: _221  and  _223
REMARK   98  A    between atoms: _223  and  _224
REMARK   99  A    between atoms: _223  and  _226
REMARK  100  A    between atoms: _226  and  _227
REMARK  101  A    between atoms: _229  and  _231
REMARK  102  A    between atoms: _231  and  _232
REMARK  103  A    between atoms: _231  and  _234
REMARK  104  A    between atoms: _234  and  _235
REMARK  105  A    between atoms: _245  and  _247
REMARK  106  A    between atoms: _247  and  _248
REMARK  107  A    between atoms: _250  and  _252
REMARK  108  A    between atoms: _252  and  _253
REMARK  109  A    between atoms: _252  and  _255
REMARK  110  A    between atoms: _255  and  _256
REMARK  111  A    between atoms: _258  and  _260
REMARK  112  A    between atoms: _260  and  _261
REMARK  113  A    between atoms: _263  and  _265
REMARK  114  A    between atoms: _265  and  _266
REMARK  115  A    between atoms: _265  and  _268
REMARK  116  A    between atoms: _268  and  _269
REMARK  117  A    between atoms: _270  and  _272
REMARK  118  A    between atoms: _272  and  _273
REMARK  119  A    between atoms: _276  and  _278
REMARK  120  A    between atoms: _278  and  _279
REMARK  121  A    between atoms: _278  and  _281
REMARK  122  A    between atoms: _281  and  _282
REMARK  123  A    between atoms: _282  and  _283
REMARK  124  A    between atoms: _288  and  _290
REMARK  125  A    between atoms: _290  and  _291
REMARK  126  A    between atoms: _290  and  _293
REMARK  127  A    between atoms: _293  and  _294
REMARK  128  A    between atoms: _294  and  _295
REMARK  129  A    between atoms: _295  and  _296
REMARK  130  A    between atoms: _296  and  _297
REMARK  131  A    between atoms: _302  and  _303
REMARK  132  A    between atoms: _308  and  _310
REMARK  133  A    between atoms: _310  and  _311
REMARK  134  A    between atoms: _313  and  _315
REMARK  135  A    between atoms: _315  and  _316
REMARK  136  A    between atoms: _315  and  _318
REMARK  137  A    between atoms: _321  and  _323
REMARK  138  A    between atoms: _323  and  _324
REMARK  139  A    between atoms: _323  and  _326
REMARK  140  A    between atoms: _326  and  _327
REMARK  141  A    between atoms: _332  and  _333
REMARK  142  A    between atoms: _335  and  _337
REMARK  143  A    between atoms: _337  and  _338
REMARK  144  A    between atoms: _337  and  _340
REMARK  145  A    between atoms: _340  and  _341
REMARK                            x       y       z     vdW  Elec       q    Type
REMARK                         _______ _______ _______ _____ _____    ______ ____
ROOT
ATOM      1  CA  VAL A   4      23.414  17.394  13.019  0.00  0.00    +0.149 C 
ENDROOT
BRANCH   1   3
ATOM      2  C   GLY A   3      25.594  18.113  12.166  0.00  0.00    +0.243 C 
ATOM      3  N   VAL A   4      24.862  17.325  12.949  0.00  0.00    -0.297 N 
ATOM      4  H   VAL A   4      25.352  16.624  13.541  0.00  0.00    +0.150 HD
ATOM      5  O   GLY A   3      25.119  18.940  11.377  0.00  0.00    -0.273 OA
BRANCH   2   6
ATOM      6  CA  GLY A   3      27.092  17.955  12.317  0.00  0.00    +0.176 C 
BRANCH   6   8
ATOM      7  C   PRO A   2      27.656  17.281  10.068  0.00  0.00    +0.241 C 
ATOM      8  N   GLY A   3      27.782  18.151  11.058  0.00  0.00    -0.295 N 
ATOM      9  H   GLY A   3      28.386  18.988  10.930  0.00  0.00    +0.150 HD
ATOM     10  O   PRO A   2      27.034  16.227  10.187  0.00  0.00    -0.273 OA
BRANCH   7  14
ATOM     11  C   LYS A   1      29.145  15.519   8.001  0.00  0.00    +0.241 C 
ATOM     12  O   LYS A   1      29.886  15.448   8.981  0.00  0.00    -0.273 OA
ATOM     13  N   PRO A   2      28.304  16.549   7.806  0.00  0.00    -0.272 N 
ATOM     14  CA  PRO A   2      28.308  17.665   8.746  0.00  0.00    +0.152 C 
ATOM     15  CB  PRO A   2      27.472  18.729   8.022  0.00  0.00    +0.031 C 
ATOM     16  CG  PRO A   2      26.551  17.943   7.155  0.00  0.00    +0.024 C 
ATOM     17  CD  PRO A   2      27.362  16.770   6.694  0.00  0.00    +0.094 C 
BRANCH  11  18
ATOM     18  CA  LYS A   1      29.157  14.433   6.935  0.00  0.00    +0.145 C 
BRANCH  18  19
ATOM     19  N   LYS A   1      29.827  14.949   5.743  0.00  0.00    -0.238 NA
ATOM     20  H   LYS A   1      30.734  15.446   5.854  0.00  0.00    +0.142 HD
ENDBRANCH  18  19
BRANCH  18  21
ATOM     21  CB  LYS A   1      29.841  13.157   7.432  0.00  0.00    +0.026 C 
BRANCH  21  22
ATOM     22  CG  LYS A   1      29.680  11.965   6.493  0.00  0.00    -0.000 C 
BRANCH  22  23
ATOM     23  CD  LYS A   1      28.206  11.576   6.378  0.00  0.00    -0.024 C 
BRANCH  23  24
ATOM     24  CE  LYS A   1      27.999  10.436   5.417  0.00  0.00    -0.086 C 
BRANCH  24  25
ATOM     25  NZ  LYS A   1      26.549  10.124   5.245  0.00  0.00    +0.380 N 
ATOM     26  HZ1 LYS A   1      26.141   9.859   6.164  0.00  0.00    -0.089 HD
ATOM     27  HZ2 LYS A   1      26.057  10.962   4.874  0.00  0.00    -0.089 HD
ATOM     28  HZ3 LYS A   1      26.442   9.334   4.577  0.00  0.00    -0.089 HD
ENDBRANCH  24  25
ENDBRANCH  23  24
ENDBRANCH  22  23
ENDBRANCH  21  22
ENDBRANCH  18  21
ENDBRANCH  11  18
ENDBRANCH   7  14
ENDBRANCH   6   8
ENDBRANCH   2   6
ENDBRANCH   1   3
BRANCH   1  29
ATOM     29  C   VAL A   4      23.009  17.825  14.431  0.00  0.00    +0.241 C 
ATOM     30  O   VAL A   4      23.547  17.340  15.438  0.00  0.00    -0.273 OA
ATOM     31  N   TYR A   5      22.044  18.739  14.474  0.00  0.00    -0.297 N 
ATOM     32  H   TYR A   5      21.511  18.923  13.600  0.00  0.00    +0.150 HD
BRANCH  31  33
ATOM     33  CA  TYR A   5      21.684  19.496  15.656  0.00  0.00    +0.153 C 
BRANCH  33  34
ATOM     34  C   TYR A   5      20.182  19.480  15.852  0.00  0.00    +0.241 C 
ATOM     35  N   THR A   6      19.762  19.389  17.107  0.00  0.00    -0.296 N 
ATOM     36  H   THR A   6      20.456  19.249  17.869  0.00  0.00    +0.150 HD
ATOM     37  O   TYR A   5      19.411  19.573  14.894  0.00  0.00    -0.273 OA
BRANCH  35  38
ATOM     38  CA  THR A   6      18.343  19.482  17.437  0.00  0.00    +0.164 C 
BRANCH  38  39
ATOM     39  CB  THR A   6      18.111  19.147  18.897  0.00  0.00    +0.136 C 
ATOM     40  CG2 THR A   6      16.610  19.061  19.215  0.00  0.00    +0.034 C 
BRANCH  39  41
ATOM     41  OG1 THR A   6      18.747  17.899  19.171  0.00  0.00    -0.382 OA
ATOM     42  HG1 THR A   6      18.608  17.661  20.122  0.00  0.00    +0.210 HD
ENDBRANCH  39  41
ENDBRANCH  38  39
BRANCH  38  43
ATOM     43  C   THR A   6      17.858  20.896  17.165  0.00  0.00    +0.229 C 
ATOM     44  O   THR A   6      18.503  21.861  17.573  0.00  0.00    -0.286 OA
ENDBRANCH  38  43
ENDBRANCH  35  38
ENDBRANCH  33  34
BRANCH  33  45
ATOM     45  CB  TYR A   5      22.199  20.942  15.514  0.00  0.00    +0.055 C 
BRANCH  45  46
ATOM     46  CG  TYR A   5      23.707  20.959  15.360  0.00  0.00    -0.020 A 
ATOM     47  CD2 TYR A   5      24.519  20.893  16.478  0.00  0.00    -0.001 A 
ATOM     48  CE2 TYR A   5      25.889  20.862  16.367  0.00  0.00    +0.036 A 
ATOM     49  CZ  TYR A   5      26.482  20.870  15.129  0.00  0.00    +0.134 A 
ATOM     50  CE1 TYR A   5      25.707  20.924  13.984  0.00  0.00    +0.036 A 
ATOM     51  CD1 TYR A   5      24.320  20.968  14.101  0.00  0.00    -0.001 A 
BRANCH  49  52
ATOM     52  OH  TYR A   5      27.853  20.814  15.085  0.00  0.00    -0.506 OA
ATOM     53  HH  TYR A   5      28.200  21.618  14.623  0.00  0.00    +0.292 HD
ENDBRANCH  49  52
ENDBRANCH  45  46
ENDBRANCH  33  45
ENDBRANCH  31  33
ENDBRANCH   1  29
BRANCH   1  54
ATOM     54  CB  VAL A   4      22.749  16.056  12.626  0.00  0.00    +0.027 C 
ATOM     55  CG2 VAL A   4      21.233  16.262  12.460  0.00  0.00    +0.002 C 
ATOM     56  CG1 VAL A   4      23.366  15.501  11.334  0.00  0.00    +0.002 C 
ENDBRANCH   1  54
TORSDOF 22
REMARK  Name = ../refined-set-2016/3nkk/3nkk_pocket.pdb
REMARK  145 active torsions:
REMARK  status: ('A' for Active; 'I' for Inactive)
REMARK    1  A    between atoms: _1  and  _5
REMARK    2  A    between atoms: _5  and  _6
REMARK    3  A    between atoms: _5  and  _8
REMARK    4  A    between atoms: _8  and  _9
REMARK    5  A    between atoms: _12  and  _14
REMARK    6  A    between atoms: _14  and  _15
REMARK    7  A    between atoms: _14  and  _17
REMARK    8  A    between atoms: _20  and  _22
REMARK    9  A    between atoms: _22  and  _23
REMARK   10  A    between atoms: _22  and  _25
REMARK   11  A    between atoms: _25  and  _26
REMARK   12  A    between atoms: _26  and  _50
REMARK   13  A    between atoms: _27  and  _29
REMARK   14  A    between atoms: _29  and  _30
REMARK   15  A    between atoms: _33  and  _35
REMARK   16  A    between atoms: _35  and  _36
REMARK   17  A    between atoms: _35  and  _38
REMARK   18  A    between atoms: _38  and  _39
REMARK   19  A    between atoms: _44  and  _46
REMARK   20  A    between atoms: _46  and  _47
REMARK   21  A    between atoms: _46  and  _49
REMARK   22  A    between atoms: _49  and  _50
REMARK   23  A    between atoms: _51  and  _53
REMARK   24  A    between atoms: _53  and  _54
REMARK   25  A    between atoms: _53  and  _56
REMARK   26  A    between atoms: _56  and  _57
REMARK   27  A    between atoms: _60  and  _62
REMARK   28  A    between atoms: _62  and  _63
REMARK   29  A    between atoms: _62  and  _65
REMARK   30  A    between atoms: _65  and  _66
REMARK   31  A    between atoms: _69  and  _71
REMARK   32  A    between atoms: _71  and  _72
REMARK   33  A    between atoms: _71  and  _74
REMARK   34  A    between atoms: _74  and  _75
REMARK   35  A    between atoms: _78  and  _80
REMARK   36  A    between atoms: _80  and  _81
REMARK   37  A    between atoms: _80  and  _83
REMARK   38  A    between atoms: _83  and  _84
REMARK   39  A    between atoms: _89  and  _91
REMARK   40  A    between atoms: _91  and  _92
REMARK   41  A    between atoms: _91  and  _94
REMARK   42  A    between atoms: _94  and  _95
REMARK   43  A    between atoms: _100  and  _101
REMARK   44  A    between atoms: _103  and  _105
REMARK   45  A    between atoms: _105  and  _106
REMARK   46  A    between atoms: _105  and  _108
REMARK   47  A    between atoms: _108  and  _109
REMARK   48  A    between atoms: _114  and  _115
REMARK   49  A    between atoms: _117  and  _119
REMARK   50  A    between atoms: _119  and  _120
REMARK   51  A    between atoms: _123  and  _125
REMARK   52  A    between atoms: _125  and  _126
REMARK   53  A    between atoms: _125  and  _128
REMARK   54  A    between atoms: _128  and  _129
REMARK   55  A    between atoms: _129  and  _130
REMARK   56  A    between atoms: _130  and  _131
REMARK   57  A    between atoms: _131  and  _132
REMARK   58  A    between atoms: _136  and  _138
REMARK   59  A    between atoms: _138  and  _139
REMARK   60  A    between atoms: _138  and  _141
REMARK   61  A    between atoms: _141  and  _142
REMARK   62  A    between atoms: _145  and  _147
REMARK   63  A    between atoms: _147  and  _148
REMARK   64  A    between atoms: _147  and  _150
REMARK   65  A    between atoms: _150  and  _151
REMARK   66  A    between atoms: _153  and  _155
REMARK   67  A    between atoms: _155  and  _156
REMARK   68  A    between atoms: _155  and  _158
REMARK   69  A    between atoms: _158  and  _159
REMARK   70  A    between atoms: _159  and  _269
REMARK   71  A    between atoms: _160  and  _162
REMARK   72  A    between atoms: _162  and  _163
REMARK   73  A    between atoms: _162  and  _165
REMARK   74  A    between atoms: _165  and  _166
REMARK   75  A    between atoms: _166  and  _167
REMARK   76  A    between atoms: _172  and  _174
REMARK   77  A    between atoms: _174  and  _175
REMARK   78  A    between atoms: _177  and  _179
REMARK   79  A    between atoms: _179  and  _180
REMARK   80  A    between atoms: _179  and  _182
REMARK   81  A    between atoms: _182  and  _183
REMARK   82  A    between atoms: _186  and  _188
REMARK   83  A    between atoms: _188  and  _189
REMARK   84  A    between atoms: _188  and  _191
REMARK   85  A    between atoms: _191  and  _192
REMARK   86  A    between atoms: _194  and  _196
REMARK   87  A    between atoms: _196  and  _197
REMARK   88  A    between atoms: _199  and  _201
REMARK   89  A    between atoms: _201  and  _202
REMARK   90  A    between atoms: _204  and  _206
REMARK   91  A    between atoms: _206  and  _207
REMARK   92  A    between atoms: _206  and  _209
REMARK   93  A    between atoms: _209  and  _210
REMARK   94  A    between atoms: _213  and  _215
REMARK   95  A    between atoms: _215  and  _216
REMARK   96  A    between atoms: _215  and  _218
REMARK   97  A    between atoms: _221  and  _223
REMARK   98  A    between atoms: _223  and  _224
REMARK   99  A    between atoms: _223  and  _226
REMARK  100  A    between atoms: _226  and  _227
REMARK  101  A    between atoms: _229  and  _231
REMARK  102  A    between atoms: _231  and  _232
REMARK  103  A    between atoms: _231  and  _234
REMARK  104  A    between atoms: _234  and  _235
REMARK  105  A    between atoms: _245  and  _247
REMARK  106  A    between atoms: _247  and  _248
REMARK  107  A    between atoms: _250  and  _252
REMARK  108  A    between atoms: _252  and  _253
REMARK  109  A    between atoms: _252  and  _255
REMARK  110  A    between atoms: _255  and  _256
REMARK  111  A    between atoms: _258  and  _260
REMARK  112  A    between atoms: _260  and  _261
REMARK  113  A    between atoms: _263  and  _265
REMARK  114  A    between atoms: _265  and  _266
REMARK  115  A    between atoms: _265  and  _268
REMARK  116  A    between atoms: _268  and  _269
REMARK  117  A    between atoms: _270  and  _272
REMARK  118  A    between atoms: _272  and  _273
REMARK  119  A    between atoms: _276  and  _278
REMARK  120  A    between atoms: _278  and  _279
REMARK  121  A    between atoms: _278  and  _281
REMARK  122  A    between atoms: _281  and  _282
REMARK  123  A    between atoms: _282  and  _283
REMARK  124  A    between atoms: _288  and  _290
REMARK  125  A    between atoms: _290  and  _291
REMARK  126  A    between atoms: _290  and  _293
REMARK  127  A    between atoms: _293  and  _294
REMARK  128  A    between atoms: _294  and  _295
REMARK  129  A    between atoms: _295  and  _296
REMARK  130  A    between atoms: _296  and  _297
REMARK  131  A    between atoms: _302  and  _303
REMARK  132  A    between atoms: _308  and  _310
REMARK  133  A    between atoms: _310  and  _311
REMARK  134  A    between atoms: _313  and  _315
REMARK  135  A    between atoms: _315  and  _316
REMARK  136  A    between atoms: _315  and  _318
REMARK  137  A    between atoms: _321  and  _323
REMARK  138  A    between atoms: _323  and  _324
REMARK  139  A    between atoms: _323  and  _326
REMARK  140  A    between atoms: _326  and  _327
REMARK  141  A    between atoms: _332  and  _333
REMARK  142  A    between atoms: _335  and  _337
REMARK  143  A    between atoms: _337  and  _338
REMARK  144  A    between atoms: _337  and  _340
REMARK  145  A    between atoms: _340  and  _341
REMARK                            x       y       z     vdW  Elec       q    Type
REMARK                         _______ _______ _______ _____ _____    ______ ____
ROOT
ATOM      1  O   HOH     1      37.345  11.372  16.146  0.00  0.00    +0.000 OA
ENDROOT
TORSDOF 0
REMARK  Name = ../refined-set-2016/3nkk/3nkk_pocket.pdb
REMARK  145 active torsions:
REMARK  status: ('A' for Active; 'I' for Inactive)
REMARK    1  A    between atoms: _1  and  _5
REMARK    2  A    between atoms: _5  and  _6
REMARK    3  A    between atoms: _5  and  _8
REMARK    4  A    between atoms: _8  and  _9
REMARK    5  A    between atoms: _12  and  _14
REMARK    6  A    between atoms: _14  and  _15
REMARK    7  A    between atoms: _14  and  _17
REMARK    8  A    between atoms: _20  and  _22
REMARK    9  A    between atoms: _22  and  _23
REMARK   10  A    between atoms: _22  and  _25
REMARK   11  A    between atoms: _25  and  _26
REMARK   12  A    between atoms: _26  and  _50
REMARK   13  A    between atoms: _27  and  _29
REMARK   14  A    between atoms: _29  and  _30
REMARK   15  A    between atoms: _33  and  _35
REMARK   16  A    between atoms: _35  and  _36
REMARK   17  A    between atoms: _35  and  _38
REMARK   18  A    between atoms: _38  and  _39
REMARK   19  A    between atoms: _44  and  _46
REMARK   20  A    between atoms: _46  and  _47
REMARK   21  A    between atoms: _46  and  _49
REMARK   22  A    between atoms: _49  and  _50
REMARK   23  A    between atoms: _51  and  _53
REMARK   24  A    between atoms: _53  and  _54
REMARK   25  A    between atoms: _53  and  _56
REMARK   26  A    between atoms: _56  and  _57
REMARK   27  A    between atoms: _60  and  _62
REMARK   28  A    between atoms: _62  and  _63
REMARK   29  A    between atoms: _62  and  _65
REMARK   30  A    between atoms: _65  and  _66
REMARK   31  A    between atoms: _69  and  _71
REMARK   32  A    between atoms: _71  and  _72
REMARK   33  A    between atoms: _71  and  _74
REMARK   34  A    between atoms: _74  and  _75
REMARK   35  A    between atoms: _78  and  _80
REMARK   36  A    between atoms: _80  and  _81
REMARK   37  A    between atoms: _80  and  _83
REMARK   38  A    between atoms: _83  and  _84
REMARK   39  A    between atoms: _89  and  _91
REMARK   40  A    between atoms: _91  and  _92
REMARK   41  A    between atoms: _91  and  _94
REMARK   42  A    between atoms: _94  and  _95
REMARK   43  A    between atoms: _100  and  _101
REMARK   44  A    between atoms: _103  and  _105
REMARK   45  A    between atoms: _105  and  _106
REMARK   46  A    between atoms: _105  and  _108
REMARK   47  A    between atoms: _108  and  _109
REMARK   48  A    between atoms: _114  and  _115
REMARK   49  A    between atoms: _117  and  _119
REMARK   50  A    between atoms: _119  and  _120
REMARK   51  A    between atoms: _123  and  _125
REMARK   52  A    between atoms: _125  and  _126
REMARK   53  A    between atoms: _125  and  _128
REMARK   54  A    between atoms: _128  and  _129
REMARK   55  A    between atoms: _129  and  _130
REMARK   56  A    between atoms: _130  and  _131
REMARK   57  A    between atoms: _131  and  _132
REMARK   58  A    between atoms: _136  and  _138
REMARK   59  A    between atoms: _138  and  _139
REMARK   60  A    between atoms: _138  and  _141
REMARK   61  A    between atoms: _141  and  _142
REMARK   62  A    between atoms: _145  and  _147
REMARK   63  A    between atoms: _147  and  _148
REMARK   64  A    between atoms: _147  and  _150
REMARK   65  A    between atoms: _150  and  _151
REMARK   66  A    between atoms: _153  and  _155
REMARK   67  A    between atoms: _155  and  _156
REMARK   68  A    between atoms: _155  and  _158
REMARK   69  A    between atoms: _158  and  _159
REMARK   70  A    between atoms: _159  and  _269
REMARK   71  A    between atoms: _160  and  _162
REMARK   72  A    between atoms: _162  and  _163
REMARK   73  A    between atoms: _162  and  _165
REMARK   74  A    between atoms: _165  and  _166
REMARK   75  A    between atoms: _166  and  _167
REMARK   76  A    between atoms: _172  and  _174
REMARK   77  A    between atoms: _174  and  _175
REMARK   78  A    between atoms: _177  and  _179
REMARK   79  A    between atoms: _179  and  _180
REMARK   80  A    between atoms: _179  and  _182
REMARK   81  A    between atoms: _182  and  _183
REMARK   82  A    between atoms: _186  and  _188
REMARK   83  A    between atoms: _188  and  _189
REMARK   84  A    between atoms: _188  and  _191
REMARK   85  A    between atoms: _191  and  _192
REMARK   86  A    between atoms: _194  and  _196
REMARK   87  A    between atoms: _196  and  _197
REMARK   88  A    between atoms: _199  and  _201
REMARK   89  A    between atoms: _201  and  _202
REMARK   90  A    between atoms: _204  and  _206
REMARK   91  A    between atoms: _206  and  _207
REMARK   92  A    between atoms: _206  and  _209
REMARK   93  A    between atoms: _209  and  _210
REMARK   94  A    between atoms: _213  and  _215
REMARK   95  A    between atoms: _215  and  _216
REMARK   96  A    between atoms: _215  and  _218
REMARK   97  A    between atoms: _221  and  _223
REMARK   98  A    between atoms: _223  and  _224
REMARK   99  A    between atoms: _223  and  _226
REMARK  100  A    between atoms: _226  and  _227
REMARK  101  A    between atoms: _229  and  _231
REMARK  102  A    between atoms: _231  and  _232
REMARK  103  A    between atoms: _231  and  _234
REMARK  104  A    between atoms: _234  and  _235
REMARK  105  A    between atoms: _245  and  _247
REMARK  106  A    between atoms: _247  and  _248
REMARK  107  A    between atoms: _250  and  _252
REMARK  108  A    between atoms: _252  and  _253
REMARK  109  A    between atoms: _252  and  _255
REMARK  110  A    between atoms: _255  and  _256
REMARK  111  A    between atoms: _258  and  _260
REMARK  112  A    between atoms: _260  and  _261
REMARK  113  A    between atoms: _263  and  _265
REMARK  114  A    between atoms: _265  and  _266
REMARK  115  A    between atoms: _265  and  _268
REMARK  116  A    between atoms: _268  and  _269
REMARK  117  A    between atoms: _270  and  _272
REMARK  118  A    between atoms: _272  and  _273
REMARK  119  A    between atoms: _276  and  _278
REMARK  120  A    between atoms: _278  and  _279
REMARK  121  A    between atoms: _278  and  _281
REMARK  122  A    between atoms: _281  and  _282
REMARK  123  A    between atoms: _282  and  _283
REMARK  124  A    between atoms: _288  and  _290
REMARK  125  A    between atoms: _290  and  _291
REMARK  126  A    between atoms: _290  and  _293
REMARK  127  A    between atoms: _293  and  _294
REMARK  128  A    between atoms: _294  and  _295
REMARK  129  A    between atoms: _295  and  _296
REMARK  130  A    between atoms: _296  and  _297
REMARK  131  A    between atoms: _302  and  _303
REMARK  132  A    between atoms: _308  and  _310
REMARK  133  A    between atoms: _310  and  _311
REMARK  134  A    between atoms: _313  and  _315
REMARK  135  A    between atoms: _315  and  _316
REMARK  136  A    between atoms: _315  and  _318
REMARK  137  A    between atoms: _321  and  _323
REMARK  138  A    between atoms: _323  and  _324
REMARK  139  A    between atoms: _323  and  _326
REMARK  140  A    between atoms: _326  and  _327
REMARK  141  A    between atoms: _332  and  _333
REMARK  142  A    between atoms: _335  and  _337
REMARK  143  A    between atoms: _337  and  _338
REMARK  144  A    between atoms: _337  and  _340
REMARK  145  A    between atoms: _340  and  _341
REMARK                            x       y       z     vdW  Elec       q    Type
REMARK                         _______ _______ _______ _____ _____    ______ ____
ROOT
ATOM      1  O   HOH     1      33.314  11.598  24.804  0.00  0.00    +0.000 OA
ENDROOT
TORSDOF 0
REMARK  Name = ../refined-set-2016/3nkk/3nkk_pocket.pdb
REMARK  145 active torsions:
REMARK  status: ('A' for Active; 'I' for Inactive)
REMARK    1  A    between atoms: _1  and  _5
REMARK    2  A    between atoms: _5  and  _6
REMARK    3  A    between atoms: _5  and  _8
REMARK    4  A    between atoms: _8  and  _9
REMARK    5  A    between atoms: _12  and  _14
REMARK    6  A    between atoms: _14  and  _15
REMARK    7  A    between atoms: _14  and  _17
REMARK    8  A    between atoms: _20  and  _22
REMARK    9  A    between atoms: _22  and  _23
REMARK   10  A    between atoms: _22  and  _25
REMARK   11  A    between atoms: _25  and  _26
REMARK   12  A    between atoms: _26  and  _50
REMARK   13  A    between atoms: _27  and  _29
REMARK   14  A    between atoms: _29  and  _30
REMARK   15  A    between atoms: _33  and  _35
REMARK   16  A    between atoms: _35  and  _36
REMARK   17  A    between atoms: _35  and  _38
REMARK   18  A    between atoms: _38  and  _39
REMARK   19  A    between atoms: _44  and  _46
REMARK   20  A    between atoms: _46  and  _47
REMARK   21  A    between atoms: _46  and  _49
REMARK   22  A    between atoms: _49  and  _50
REMARK   23  A    between atoms: _51  and  _53
REMARK   24  A    between atoms: _53  and  _54
REMARK   25  A    between atoms: _53  and  _56
REMARK   26  A    between atoms: _56  and  _57
REMARK   27  A    between atoms: _60  and  _62
REMARK   28  A    between atoms: _62  and  _63
REMARK   29  A    between atoms: _62  and  _65
REMARK   30  A    between atoms: _65  and  _66
REMARK   31  A    between atoms: _69  and  _71
REMARK   32  A    between atoms: _71  and  _72
REMARK   33  A    between atoms: _71  and  _74
REMARK   34  A    between atoms: _74  and  _75
REMARK   35  A    between atoms: _78  and  _80
REMARK   36  A    between atoms: _80  and  _81
REMARK   37  A    between atoms: _80  and  _83
REMARK   38  A    between atoms: _83  and  _84
REMARK   39  A    between atoms: _89  and  _91
REMARK   40  A    between atoms: _91  and  _92
REMARK   41  A    between atoms: _91  and  _94
REMARK   42  A    between atoms: _94  and  _95
REMARK   43  A    between atoms: _100  and  _101
REMARK   44  A    between atoms: _103  and  _105
REMARK   45  A    between atoms: _105  and  _106
REMARK   46  A    between atoms: _105  and  _108
REMARK   47  A    between atoms: _108  and  _109
REMARK   48  A    between atoms: _114  and  _115
REMARK   49  A    between atoms: _117  and  _119
REMARK   50  A    between atoms: _119  and  _120
REMARK   51  A    between atoms: _123  and  _125
REMARK   52  A    between atoms: _125  and  _126
REMARK   53  A    between atoms: _125  and  _128
REMARK   54  A    between atoms: _128  and  _129
REMARK   55  A    between atoms: _129  and  _130
REMARK   56  A    between atoms: _130  and  _131
REMARK   57  A    between atoms: _131  and  _132
REMARK   58  A    between atoms: _136  and  _138
REMARK   59  A    between atoms: _138  and  _139
REMARK   60  A    between atoms: _138  and  _141
REMARK   61  A    between atoms: _141  and  _142
REMARK   62  A    between atoms: _145  and  _147
REMARK   63  A    between atoms: _147  and  _148
REMARK   64  A    between atoms: _147  and  _150
REMARK   65  A    between atoms: _150  and  _151
REMARK   66  A    between atoms: _153  and  _155
REMARK   67  A    between atoms: _155  and  _156
REMARK   68  A    between atoms: _155  and  _158
REMARK   69  A    between atoms: _158  and  _159
REMARK   70  A    between atoms: _159  and  _269
REMARK   71  A    between atoms: _160  and  _162
REMARK   72  A    between atoms: _162  and  _163
REMARK   73  A    between atoms: _162  and  _165
REMARK   74  A    between atoms: _165  and  _166
REMARK   75  A    between atoms: _166  and  _167
REMARK   76  A    between atoms: _172  and  _174
REMARK   77  A    between atoms: _174  and  _175
REMARK   78  A    between atoms: _177  and  _179
REMARK   79  A    between atoms: _179  and  _180
REMARK   80  A    between atoms: _179  and  _182
REMARK   81  A    between atoms: _182  and  _183
REMARK   82  A    between atoms: _186  and  _188
REMARK   83  A    between atoms: _188  and  _189
REMARK   84  A    between atoms: _188  and  _191
REMARK   85  A    between atoms: _191  and  _192
REMARK   86  A    between atoms: _194  and  _196
REMARK   87  A    between atoms: _196  and  _197
REMARK   88  A    between atoms: _199  and  _201
REMARK   89  A    between atoms: _201  and  _202
REMARK   90  A    between atoms: _204  and  _206
REMARK   91  A    between atoms: _206  and  _207
REMARK   92  A    between atoms: _206  and  _209
REMARK   93  A    between atoms: _209  and  _210
REMARK   94  A    between atoms: _213  and  _215
REMARK   95  A    between atoms: _215  and  _216
REMARK   96  A    between atoms: _215  and  _218
REMARK   97  A    between atoms: _221  and  _223
REMARK   98  A    between atoms: _223  and  _224
REMARK   99  A    between atoms: _223  and  _226
REMARK  100  A    between atoms: _226  and  _227
REMARK  101  A    between atoms: _229  and  _231
REMARK  102  A    between atoms: _231  and  _232
REMARK  103  A    between atoms: _231  and  _234
REMARK  104  A    between atoms: _234  and  _235
REMARK  105  A    between atoms: _245  and  _247
REMARK  106  A    between atoms: _247  and  _248
REMARK  107  A    between atoms: _250  and  _252
REMARK  108  A    between atoms: _252  and  _253
REMARK  109  A    between atoms: _252  and  _255
REMARK  110  A    between atoms: _255  and  _256
REMARK  111  A    between atoms: _258  and  _260
REMARK  112  A    between atoms: _260  and  _261
REMARK  113  A    between atoms: _263  and  _265
REMARK  114  A    between atoms: _265  and  _266
REMARK  115  A    between atoms: _265  and  _268
REMARK  116  A    between atoms: _268  and  _269
REMARK  117  A    between atoms: _270  and  _272
REMARK  118  A    between atoms: _272  and  _273
REMARK  119  A    between atoms: _276  and  _278
REMARK  120  A    between atoms: _278  and  _279
REMARK  121  A    between atoms: _278  and  _281
REMARK  122  A    between atoms: _281  and  _282
REMARK  123  A    between atoms: _282  and  _283
REMARK  124  A    between atoms: _288  and  _290
REMARK  125  A    between atoms: _290  and  _291
REMARK  126  A    between atoms: _290  and  _293
REMARK  127  A    between atoms: _293  and  _294
REMARK  128  A    between atoms: _294  and  _295
REMARK  129  A    between atoms: _295  and  _296
REMARK  130  A    between atoms: _296  and  _297
REMARK  131  A    between atoms: _302  and  _303
REMARK  132  A    between atoms: _308  and  _310
REMARK  133  A    between atoms: _310  and  _311
REMARK  134  A    between atoms: _313  and  _315
REMARK  135  A    between atoms: _315  and  _316
REMARK  136  A    between atoms: _315  and  _318
REMARK  137  A    between atoms: _321  and  _323
REMARK  138  A    between atoms: _323  and  _324
REMARK  139  A    between atoms: _323  and  _326
REMARK  140  A    between atoms: _326  and  _327
REMARK  141  A    between atoms: _332  and  _333
REMARK  142  A    between atoms: _335  and  _337
REMARK  143  A    between atoms: _337  and  _338
REMARK  144  A    between atoms: _337  and  _340
REMARK  145  A    between atoms: _340  and  _341
REMARK                            x       y       z     vdW  Elec       q    Type
REMARK                         _______ _______ _______ _____ _____    ______ ____
ROOT
ATOM      1  O   HOH     1      28.267   8.662  15.882  0.00  0.00    +0.000 OA
ENDROOT
TORSDOF 0
REMARK  Name = ../refined-set-2016/3nkk/3nkk_pocket.pdb
REMARK  145 active torsions:
REMARK  status: ('A' for Active; 'I' for Inactive)
REMARK    1  A    between atoms: _1  and  _5
REMARK    2  A    between atoms: _5  and  _6
REMARK    3  A    between atoms: _5  and  _8
REMARK    4  A    between atoms: _8  and  _9
REMARK    5  A    between atoms: _12  and  _14
REMARK    6  A    between atoms: _14  and  _15
REMARK    7  A    between atoms: _14  and  _17
REMARK    8  A    between atoms: _20  and  _22
REMARK    9  A    between atoms: _22  and  _23
REMARK   10  A    between atoms: _22  and  _25
REMARK   11  A    between atoms: _25  and  _26
REMARK   12  A    between atoms: _26  and  _50
REMARK   13  A    between atoms: _27  and  _29
REMARK   14  A    between atoms: _29  and  _30
REMARK   15  A    between atoms: _33  and  _35
REMARK   16  A    between atoms: _35  and  _36
REMARK   17  A    between atoms: _35  and  _38
REMARK   18  A    between atoms: _38  and  _39
REMARK   19  A    between atoms: _44  and  _46
REMARK   20  A    between atoms: _46  and  _47
REMARK   21  A    between atoms: _46  and  _49
REMARK   22  A    between atoms: _49  and  _50
REMARK   23  A    between atoms: _51  and  _53
REMARK   24  A    between atoms: _53  and  _54
REMARK   25  A    between atoms: _53  and  _56
REMARK   26  A    between atoms: _56  and  _57
REMARK   27  A    between atoms: _60  and  _62
REMARK   28  A    between atoms: _62  and  _63
REMARK   29  A    between atoms: _62  and  _65
REMARK   30  A    between atoms: _65  and  _66
REMARK   31  A    between atoms: _69  and  _71
REMARK   32  A    between atoms: _71  and  _72
REMARK   33  A    between atoms: _71  and  _74
REMARK   34  A    between atoms: _74  and  _75
REMARK   35  A    between atoms: _78  and  _80
REMARK   36  A    between atoms: _80  and  _81
REMARK   37  A    between atoms: _80  and  _83
REMARK   38  A    between atoms: _83  and  _84
REMARK   39  A    between atoms: _89  and  _91
REMARK   40  A    between atoms: _91  and  _92
REMARK   41  A    between atoms: _91  and  _94
REMARK   42  A    between atoms: _94  and  _95
REMARK   43  A    between atoms: _100  and  _101
REMARK   44  A    between atoms: _103  and  _105
REMARK   45  A    between atoms: _105  and  _106
REMARK   46  A    between atoms: _105  and  _108
REMARK   47  A    between atoms: _108  and  _109
REMARK   48  A    between atoms: _114  and  _115
REMARK   49  A    between atoms: _117  and  _119
REMARK   50  A    between atoms: _119  and  _120
REMARK   51  A    between atoms: _123  and  _125
REMARK   52  A    between atoms: _125  and  _126
REMARK   53  A    between atoms: _125  and  _128
REMARK   54  A    between atoms: _128  and  _129
REMARK   55  A    between atoms: _129  and  _130
REMARK   56  A    between atoms: _130  and  _131
REMARK   57  A    between atoms: _131  and  _132
REMARK   58  A    between atoms: _136  and  _138
REMARK   59  A    between atoms: _138  and  _139
REMARK   60  A    between atoms: _138  and  _141
REMARK   61  A    between atoms: _141  and  _142
REMARK   62  A    between atoms: _145  and  _147
REMARK   63  A    between atoms: _147  and  _148
REMARK   64  A    between atoms: _147  and  _150
REMARK   65  A    between atoms: _150  and  _151
REMARK   66  A    between atoms: _153  and  _155
REMARK   67  A    between atoms: _155  and  _156
REMARK   68  A    between atoms: _155  and  _158
REMARK   69  A    between atoms: _158  and  _159
REMARK   70  A    between atoms: _159  and  _269
REMARK   71  A    between atoms: _160  and  _162
REMARK   72  A    between atoms: _162  and  _163
REMARK   73  A    between atoms: _162  and  _165
REMARK   74  A    between atoms: _165  and  _166
REMARK   75  A    between atoms: _166  and  _167
REMARK   76  A    between atoms: _172  and  _174
REMARK   77  A    between atoms: _174  and  _175
REMARK   78  A    between atoms: _177  and  _179
REMARK   79  A    between atoms: _179  and  _180
REMARK   80  A    between atoms: _179  and  _182
REMARK   81  A    between atoms: _182  and  _183
REMARK   82  A    between atoms: _186  and  _188
REMARK   83  A    between atoms: _188  and  _189
REMARK   84  A    between atoms: _188  and  _191
REMARK   85  A    between atoms: _191  and  _192
REMARK   86  A    between atoms: _194  and  _196
REMARK   87  A    between atoms: _196  and  _197
REMARK   88  A    between atoms: _199  and  _201
REMARK   89  A    between atoms: _201  and  _202
REMARK   90  A    between atoms: _204  and  _206
REMARK   91  A    between atoms: _206  and  _207
REMARK   92  A    between atoms: _206  and  _209
REMARK   93  A    between atoms: _209  and  _210
REMARK   94  A    between atoms: _213  and  _215
REMARK   95  A    between atoms: _215  and  _216
REMARK   96  A    between atoms: _215  and  _218
REMARK   97  A    between atoms: _221  and  _223
REMARK   98  A    between atoms: _223  and  _224
REMARK   99  A    between atoms: _223  and  _226
REMARK  100  A    between atoms: _226  and  _227
REMARK  101  A    between atoms: _229  and  _231
REMARK  102  A    between atoms: _231  and  _232
REMARK  103  A    between atoms: _231  and  _234
REMARK  104  A    between atoms: _234  and  _235
REMARK  105  A    between atoms: _245  and  _247
REMARK  106  A    between atoms: _247  and  _248
REMARK  107  A    between atoms: _250  and  _252
REMARK  108  A    between atoms: _252  and  _253
REMARK  109  A    between atoms: _252  and  _255
REMARK  110  A    between atoms: _255  and  _256
REMARK  111  A    between atoms: _258  and  _260
REMARK  112  A    between atoms: _260  and  _261
REMARK  113  A    between atoms: _263  and  _265
REMARK  114  A    between atoms: _265  and  _266
REMARK  115  A    between atoms: _265  and  _268
REMARK  116  A    between atoms: _268  and  _269
REMARK  117  A    between atoms: _270  and  _272
REMARK  118  A    between atoms: _272  and  _273
REMARK  119  A    between atoms: _276  and  _278
REMARK  120  A    between atoms: _278  and  _279
REMARK  121  A    between atoms: _278  and  _281
REMARK  122  A    between atoms: _281  and  _282
REMARK  123  A    between atoms: _282  and  _283
REMARK  124  A    between atoms: _288  and  _290
REMARK  125  A    between atoms: _290  and  _291
REMARK  126  A    between atoms: _290  and  _293
REMARK  127  A    between atoms: _293  and  _294
REMARK  128  A    between atoms: _294  and  _295
REMARK  129  A    between atoms: _295  and  _296
REMARK  130  A    between atoms: _296  and  _297
REMARK  131  A    between atoms: _302  and  _303
REMARK  132  A    between atoms: _308  and  _310
REMARK  133  A    between atoms: _310  and  _311
REMARK  134  A    between atoms: _313  and  _315
REMARK  135  A    between atoms: _315  and  _316
REMARK  136  A    between atoms: _315  and  _318
REMARK  137  A    between atoms: _321  and  _323
REMARK  138  A    between atoms: _323  and  _324
REMARK  139  A    between atoms: _323  and  _326
REMARK  140  A    between atoms: _326  and  _327
REMARK  141  A    between atoms: _332  and  _333
REMARK  142  A    between atoms: _335  and  _337
REMARK  143  A    between atoms: _337  and  _338
REMARK  144  A    between atoms: _337  and  _340
REMARK  145  A    between atoms: _340  and  _341
REMARK                            x       y       z     vdW  Elec       q    Type
REMARK                         _______ _______ _______ _____ _____    ______ ____
ROOT
ATOM      1  O   HOH     1      31.971   9.277  23.511  0.00  0.00    +0.000 OA
ENDROOT
TORSDOF 0
REMARK  Name = ../refined-set-2016/3nkk/3nkk_pocket.pdb
REMARK  145 active torsions:
REMARK  status: ('A' for Active; 'I' for Inactive)
REMARK    1  A    between atoms: _1  and  _5
REMARK    2  A    between atoms: _5  and  _6
REMARK    3  A    between atoms: _5  and  _8
REMARK    4  A    between atoms: _8  and  _9
REMARK    5  A    between atoms: _12  and  _14
REMARK    6  A    between atoms: _14  and  _15
REMARK    7  A    between atoms: _14  and  _17
REMARK    8  A    between atoms: _20  and  _22
REMARK    9  A    between atoms: _22  and  _23
REMARK   10  A    between atoms: _22  and  _25
REMARK   11  A    between atoms: _25  and  _26
REMARK   12  A    between atoms: _26  and  _50
REMARK   13  A    between atoms: _27  and  _29
REMARK   14  A    between atoms: _29  and  _30
REMARK   15  A    between atoms: _33  and  _35
REMARK   16  A    between atoms: _35  and  _36
REMARK   17  A    between atoms: _35  and  _38
REMARK   18  A    between atoms: _38  and  _39
REMARK   19  A    between atoms: _44  and  _46
REMARK   20  A    between atoms: _46  and  _47
REMARK   21  A    between atoms: _46  and  _49
REMARK   22  A    between atoms: _49  and  _50
REMARK   23  A    between atoms: _51  and  _53
REMARK   24  A    between atoms: _53  and  _54
REMARK   25  A    between atoms: _53  and  _56
REMARK   26  A    between atoms: _56  and  _57
REMARK   27  A    between atoms: _60  and  _62
REMARK   28  A    between atoms: _62  and  _63
REMARK   29  A    between atoms: _62  and  _65
REMARK   30  A    between atoms: _65  and  _66
REMARK   31  A    between atoms: _69  and  _71
REMARK   32  A    between atoms: _71  and  _72
REMARK   33  A    between atoms: _71  and  _74
REMARK   34  A    between atoms: _74  and  _75
REMARK   35  A    between atoms: _78  and  _80
REMARK   36  A    between atoms: _80  and  _81
REMARK   37  A    between atoms: _80  and  _83
REMARK   38  A    between atoms: _83  and  _84
REMARK   39  A    between atoms: _89  and  _91
REMARK   40  A    between atoms: _91  and  _92
REMARK   41  A    between atoms: _91  and  _94
REMARK   42  A    between atoms: _94  and  _95
REMARK   43  A    between atoms: _100  and  _101
REMARK   44  A    between atoms: _103  and  _105
REMARK   45  A    between atoms: _105  and  _106
REMARK   46  A    between atoms: _105  and  _108
REMARK   47  A    between atoms: _108  and  _109
REMARK   48  A    between atoms: _114  and  _115
REMARK   49  A    between atoms: _117  and  _119
REMARK   50  A    between atoms: _119  and  _120
REMARK   51  A    between atoms: _123  and  _125
REMARK   52  A    between atoms: _125  and  _126
REMARK   53  A    between atoms: _125  and  _128
REMARK   54  A    between atoms: _128  and  _129
REMARK   55  A    between atoms: _129  and  _130
REMARK   56  A    between atoms: _130  and  _131
REMARK   57  A    between atoms: _131  and  _132
REMARK   58  A    between atoms: _136  and  _138
REMARK   59  A    between atoms: _138  and  _139
REMARK   60  A    between atoms: _138  and  _141
REMARK   61  A    between atoms: _141  and  _142
REMARK   62  A    between atoms: _145  and  _147
REMARK   63  A    between atoms: _147  and  _148
REMARK   64  A    between atoms: _147  and  _150
REMARK   65  A    between atoms: _150  and  _151
REMARK   66  A    between atoms: _153  and  _155
REMARK   67  A    between atoms: _155  and  _156
REMARK   68  A    between atoms: _155  and  _158
REMARK   69  A    between atoms: _158  and  _159
REMARK   70  A    between atoms: _159  and  _269
REMARK   71  A    between atoms: _160  and  _162
REMARK   72  A    between atoms: _162  and  _163
REMARK   73  A    between atoms: _162  and  _165
REMARK   74  A    between atoms: _165  and  _166
REMARK   75  A    between atoms: _166  and  _167
REMARK   76  A    between atoms: _172  and  _174
REMARK   77  A    between atoms: _174  and  _175
REMARK   78  A    between atoms: _177  and  _179
REMARK   79  A    between atoms: _179  and  _180
REMARK   80  A    between atoms: _179  and  _182
REMARK   81  A    between atoms: _182  and  _183
REMARK   82  A    between atoms: _186  and  _188
REMARK   83  A    between atoms: _188  and  _189
REMARK   84  A    between atoms: _188  and  _191
REMARK   85  A    between atoms: _191  and  _192
REMARK   86  A    between atoms: _194  and  _196
REMARK   87  A    between atoms: _196  and  _197
REMARK   88  A    between atoms: _199  and  _201
REMARK   89  A    between atoms: _201  and  _202
REMARK   90  A    between atoms: _204  and  _206
REMARK   91  A    between atoms: _206  and  _207
REMARK   92  A    between atoms: _206  and  _209
REMARK   93  A    between atoms: _209  and  _210
REMARK   94  A    between atoms: _213  and  _215
REMARK   95  A    between atoms: _215  and  _216
REMARK   96  A    between atoms: _215  and  _218
REMARK   97  A    between atoms: _221  and  _223
REMARK   98  A    between atoms: _223  and  _224
REMARK   99  A    between atoms: _223  and  _226
REMARK  100  A    between atoms: _226  and  _227
REMARK  101  A    between atoms: _229  and  _231
REMARK  102  A    between atoms: _231  and  _232
REMARK  103  A    between atoms: _231  and  _234
REMARK  104  A    between atoms: _234  and  _235
REMARK  105  A    between atoms: _245  and  _247
REMARK  106  A    between atoms: _247  and  _248
REMARK  107  A    between atoms: _250  and  _252
REMARK  108  A    between atoms: _252  and  _253
REMARK  109  A    between atoms: _252  and  _255
REMARK  110  A    between atoms: _255  and  _256
REMARK  111  A    between atoms: _258  and  _260
REMARK  112  A    between atoms: _260  and  _261
REMARK  113  A    between atoms: _263  and  _265
REMARK  114  A    between atoms: _265  and  _266
REMARK  115  A    between atoms: _265  and  _268
REMARK  116  A    between atoms: _268  and  _269
REMARK  117  A    between atoms: _270  and  _272
REMARK  118  A    between atoms: _272  and  _273
REMARK  119  A    between atoms: _276  and  _278
REMARK  120  A    between atoms: _278  and  _279
REMARK  121  A    between atoms: _278  and  _281
REMARK  122  A    between atoms: _281  and  _282
REMARK  123  A    between atoms: _282  and  _283
REMARK  124  A    between atoms: _288  and  _290
REMARK  125  A    between atoms: _290  and  _291
REMARK  126  A    between atoms: _290  and  _293
REMARK  127  A    between atoms: _293  and  _294
REMARK  128  A    between atoms: _294  and  _295
REMARK  129  A    between atoms: _295  and  _296
REMARK  130  A    between atoms: _296  and  _297
REMARK  131  A    between atoms: _302  and  _303
REMARK  132  A    between atoms: _308  and  _310
REMARK  133  A    between atoms: _310  and  _311
REMARK  134  A    between atoms: _313  and  _315
REMARK  135  A    between atoms: _315  and  _316
REMARK  136  A    between atoms: _315  and  _318
REMARK  137  A    between atoms: _321  and  _323
REMARK  138  A    between atoms: _323  and  _324
REMARK  139  A    between atoms: _323  and  _326
REMARK  140  A    between atoms: _326  and  _327
REMARK  141  A    between atoms: _332  and  _333
REMARK  142  A    between atoms: _335  and  _337
REMARK  143  A    between atoms: _337  and  _338
REMARK  144  A    between atoms: _337  and  _340
REMARK  145  A    between atoms: _340  and  _341
REMARK                            x       y       z     vdW  Elec       q    Type
REMARK                         _______ _______ _______ _____ _____    ______ ____
ROOT
ATOM      1  O   HOH     1      24.085   8.036  16.232  0.00  0.00    +0.000 OA
ENDROOT
TORSDOF 0
REMARK  Name = ../refined-set-2016/3nkk/3nkk_pocket.pdb
REMARK  145 active torsions:
REMARK  status: ('A' for Active; 'I' for Inactive)
REMARK    1  A    between atoms: _1  and  _5
REMARK    2  A    between atoms: _5  and  _6
REMARK    3  A    between atoms: _5  and  _8
REMARK    4  A    between atoms: _8  and  _9
REMARK    5  A    between atoms: _12  and  _14
REMARK    6  A    between atoms: _14  and  _15
REMARK    7  A    between atoms: _14  and  _17
REMARK    8  A    between atoms: _20  and  _22
REMARK    9  A    between atoms: _22  and  _23
REMARK   10  A    between atoms: _22  and  _25
REMARK   11  A    between atoms: _25  and  _26
REMARK   12  A    between atoms: _26  and  _50
REMARK   13  A    between atoms: _27  and  _29
REMARK   14  A    between atoms: _29  and  _30
REMARK   15  A    between atoms: _33  and  _35
REMARK   16  A    between atoms: _35  and  _36
REMARK   17  A    between atoms: _35  and  _38
REMARK   18  A    between atoms: _38  and  _39
REMARK   19  A    between atoms: _44  and  _46
REMARK   20  A    between atoms: _46  and  _47
REMARK   21  A    between atoms: _46  and  _49
REMARK   22  A    between atoms: _49  and  _50
REMARK   23  A    between atoms: _51  and  _53
REMARK   24  A    between atoms: _53  and  _54
REMARK   25  A    between atoms: _53  and  _56
REMARK   26  A    between atoms: _56  and  _57
REMARK   27  A    between atoms: _60  and  _62
REMARK   28  A    between atoms: _62  and  _63
REMARK   29  A    between atoms: _62  and  _65
REMARK   30  A    between atoms: _65  and  _66
REMARK   31  A    between atoms: _69  and  _71
REMARK   32  A    between atoms: _71  and  _72
REMARK   33  A    between atoms: _71  and  _74
REMARK   34  A    between atoms: _74  and  _75
REMARK   35  A    between atoms: _78  and  _80
REMARK   36  A    between atoms: _80  and  _81
REMARK   37  A    between atoms: _80  and  _83
REMARK   38  A    between atoms: _83  and  _84
REMARK   39  A    between atoms: _89  and  _91
REMARK   40  A    between atoms: _91  and  _92
REMARK   41  A    between atoms: _91  and  _94
REMARK   42  A    between atoms: _94  and  _95
REMARK   43  A    between atoms: _100  and  _101
REMARK   44  A    between atoms: _103  and  _105
REMARK   45  A    between atoms: _105  and  _106
REMARK   46  A    between atoms: _105  and  _108
REMARK   47  A    between atoms: _108  and  _109
REMARK   48  A    between atoms: _114  and  _115
REMARK   49  A    between atoms: _117  and  _119
REMARK   50  A    between atoms: _119  and  _120
REMARK   51  A    between atoms: _123  and  _125
REMARK   52  A    between atoms: _125  and  _126
REMARK   53  A    between atoms: _125  and  _128
REMARK   54  A    between atoms: _128  and  _129
REMARK   55  A    between atoms: _129  and  _130
REMARK   56  A    between atoms: _130  and  _131
REMARK   57  A    between atoms: _131  and  _132
REMARK   58  A    between atoms: _136  and  _138
REMARK   59  A    between atoms: _138  and  _139
REMARK   60  A    between atoms: _138  and  _141
REMARK   61  A    between atoms: _141  and  _142
REMARK   62  A    between atoms: _145  and  _147
REMARK   63  A    between atoms: _147  and  _148
REMARK   64  A    between atoms: _147  and  _150
REMARK   65  A    between atoms: _150  and  _151
REMARK   66  A    between atoms: _153  and  _155
REMARK   67  A    between atoms: _155  and  _156
REMARK   68  A    between atoms: _155  and  _158
REMARK   69  A    between atoms: _158  and  _159
REMARK   70  A    between atoms: _159  and  _269
REMARK   71  A    between atoms: _160  and  _162
REMARK   72  A    between atoms: _162  and  _163
REMARK   73  A    between atoms: _162  and  _165
REMARK   74  A    between atoms: _165  and  _166
REMARK   75  A    between atoms: _166  and  _167
REMARK   76  A    between atoms: _172  and  _174
REMARK   77  A    between atoms: _174  and  _175
REMARK   78  A    between atoms: _177  and  _179
REMARK   79  A    between atoms: _179  and  _180
REMARK   80  A    between atoms: _179  and  _182
REMARK   81  A    between atoms: _182  and  _183
REMARK   82  A    between atoms: _186  and  _188
REMARK   83  A    between atoms: _188  and  _189
REMARK   84  A    between atoms: _188  and  _191
REMARK   85  A    between atoms: _191  and  _192
REMARK   86  A    between atoms: _194  and  _196
REMARK   87  A    between atoms: _196  and  _197
REMARK   88  A    between atoms: _199  and  _201
REMARK   89  A    between atoms: _201  and  _202
REMARK   90  A    between atoms: _204  and  _206
REMARK   91  A    between atoms: _206  and  _207
REMARK   92  A    between atoms: _206  and  _209
REMARK   93  A    between atoms: _209  and  _210
REMARK   94  A    between atoms: _213  and  _215
REMARK   95  A    between atoms: _215  and  _216
REMARK   96  A    between atoms: _215  and  _218
REMARK   97  A    between atoms: _221  and  _223
REMARK   98  A    between atoms: _223  and  _224
REMARK   99  A    between atoms: _223  and  _226
REMARK  100  A    between atoms: _226  and  _227
REMARK  101  A    between atoms: _229  and  _231
REMARK  102  A    between atoms: _231  and  _232
REMARK  103  A    between atoms: _231  and  _234
REMARK  104  A    between atoms: _234  and  _235
REMARK  105  A    between atoms: _245  and  _247
REMARK  106  A    between atoms: _247  and  _248
REMARK  107  A    between atoms: _250  and  _252
REMARK  108  A    between atoms: _252  and  _253
REMARK  109  A    between atoms: _252  and  _255
REMARK  110  A    between atoms: _255  and  _256
REMARK  111  A    between atoms: _258  and  _260
REMARK  112  A    between atoms: _260  and  _261
REMARK  113  A    between atoms: _263  and  _265
REMARK  114  A    between atoms: _265  and  _266
REMARK  115  A    between atoms: _265  and  _268
REMARK  116  A    between atoms: _268  and  _269
REMARK  117  A    between atoms: _270  and  _272
REMARK  118  A    between atoms: _272  and  _273
REMARK  119  A    between atoms: _276  and  _278
REMARK  120  A    between atoms: _278  and  _279
REMARK  121  A    between atoms: _278  and  _281
REMARK  122  A    between atoms: _281  and  _282
REMARK  123  A    between atoms: _282  and  _283
REMARK  124  A    between atoms: _288  and  _290
REMARK  125  A    between atoms: _290  and  _291
REMARK  126  A    between atoms: _290  and  _293
REMARK  127  A    between atoms: _293  and  _294
REMARK  128  A    between atoms: _294  and  _295
REMARK  129  A    between atoms: _295  and  _296
REMARK  130  A    between atoms: _296  and  _297
REMARK  131  A    between atoms: _302  and  _303
REMARK  132  A    between atoms: _308  and  _310
REMARK  133  A    between atoms: _310  and  _311
REMARK  134  A    between atoms: _313  and  _315
REMARK  135  A    between atoms: _315  and  _316
REMARK  136  A    between atoms: _315  and  _318
REMARK  137  A    between atoms: _321  and  _323
REMARK  138  A    between atoms: _323  and  _324
REMARK  139  A    between atoms: _323  and  _326
REMARK  140  A    between atoms: _326  and  _327
REMARK  141  A    between atoms: _332  and  _333
REMARK  142  A    between atoms: _335  and  _337
REMARK  143  A    between atoms: _337  and  _338
REMARK  144  A    between atoms: _337  and  _340
REMARK  145  A    between atoms: _340  and  _341
REMARK                            x       y       z     vdW  Elec       q    Type
REMARK                         _______ _______ _______ _____ _____    ______ ____
ROOT
ATOM      1  O   HOH     1      26.369  17.592  16.099  0.00  0.00    +0.000 OA
ENDROOT
TORSDOF 0
REMARK  Name = ../refined-set-2016/3nkk/3nkk_pocket.pdb
REMARK  145 active torsions:
REMARK  status: ('A' for Active; 'I' for Inactive)
REMARK    1  A    between atoms: _1  and  _5
REMARK    2  A    between atoms: _5  and  _6
REMARK    3  A    between atoms: _5  and  _8
REMARK    4  A    between atoms: _8  and  _9
REMARK    5  A    between atoms: _12  and  _14
REMARK    6  A    between atoms: _14  and  _15
REMARK    7  A    between atoms: _14  and  _17
REMARK    8  A    between atoms: _20  and  _22
REMARK    9  A    between atoms: _22  and  _23
REMARK   10  A    between atoms: _22  and  _25
REMARK   11  A    between atoms: _25  and  _26
REMARK   12  A    between atoms: _26  and  _50
REMARK   13  A    between atoms: _27  and  _29
REMARK   14  A    between atoms: _29  and  _30
REMARK   15  A    between atoms: _33  and  _35
REMARK   16  A    between atoms: _35  and  _36
REMARK   17  A    between atoms: _35  and  _38
REMARK   18  A    between atoms: _38  and  _39
REMARK   19  A    between atoms: _44  and  _46
REMARK   20  A    between atoms: _46  and  _47
REMARK   21  A    between atoms: _46  and  _49
REMARK   22  A    between atoms: _49  and  _50
REMARK   23  A    between atoms: _51  and  _53
REMARK   24  A    between atoms: _53  and  _54
REMARK   25  A    between atoms: _53  and  _56
REMARK   26  A    between atoms: _56  and  _57
REMARK   27  A    between atoms: _60  and  _62
REMARK   28  A    between atoms: _62  and  _63
REMARK   29  A    between atoms: _62  and  _65
REMARK   30  A    between atoms: _65  and  _66
REMARK   31  A    between atoms: _69  and  _71
REMARK   32  A    between atoms: _71  and  _72
REMARK   33  A    between atoms: _71  and  _74
REMARK   34  A    between atoms: _74  and  _75
REMARK   35  A    between atoms: _78  and  _80
REMARK   36  A    between atoms: _80  and  _81
REMARK   37  A    between atoms: _80  and  _83
REMARK   38  A    between atoms: _83  and  _84
REMARK   39  A    between atoms: _89  and  _91
REMARK   40  A    between atoms: _91  and  _92
REMARK   41  A    between atoms: _91  and  _94
REMARK   42  A    between atoms: _94  and  _95
REMARK   43  A    between atoms: _100  and  _101
REMARK   44  A    between atoms: _103  and  _105
REMARK   45  A    between atoms: _105  and  _106
REMARK   46  A    between atoms: _105  and  _108
REMARK   47  A    between atoms: _108  and  _109
REMARK   48  A    between atoms: _114  and  _115
REMARK   49  A    between atoms: _117  and  _119
REMARK   50  A    between atoms: _119  and  _120
REMARK   51  A    between atoms: _123  and  _125
REMARK   52  A    between atoms: _125  and  _126
REMARK   53  A    between atoms: _125  and  _128
REMARK   54  A    between atoms: _128  and  _129
REMARK   55  A    between atoms: _129  and  _130
REMARK   56  A    between atoms: _130  and  _131
REMARK   57  A    between atoms: _131  and  _132
REMARK   58  A    between atoms: _136  and  _138
REMARK   59  A    between atoms: _138  and  _139
REMARK   60  A    between atoms: _138  and  _141
REMARK   61  A    between atoms: _141  and  _142
REMARK   62  A    between atoms: _145  and  _147
REMARK   63  A    between atoms: _147  and  _148
REMARK   64  A    between atoms: _147  and  _150
REMARK   65  A    between atoms: _150  and  _151
REMARK   66  A    between atoms: _153  and  _155
REMARK   67  A    between atoms: _155  and  _156
REMARK   68  A    between atoms: _155  and  _158
REMARK   69  A    between atoms: _158  and  _159
REMARK   70  A    between atoms: _159  and  _269
REMARK   71  A    between atoms: _160  and  _162
REMARK   72  A    between atoms: _162  and  _163
REMARK   73  A    between atoms: _162  and  _165
REMARK   74  A    between atoms: _165  and  _166
REMARK   75  A    between atoms: _166  and  _167
REMARK   76  A    between atoms: _172  and  _174
REMARK   77  A    between atoms: _174  and  _175
REMARK   78  A    between atoms: _177  and  _179
REMARK   79  A    between atoms: _179  and  _180
REMARK   80  A    between atoms: _179  and  _182
REMARK   81  A    between atoms: _182  and  _183
REMARK   82  A    between atoms: _186  and  _188
REMARK   83  A    between atoms: _188  and  _189
REMARK   84  A    between atoms: _188  and  _191
REMARK   85  A    between atoms: _191  and  _192
REMARK   86  A    between atoms: _194  and  _196
REMARK   87  A    between atoms: _196  and  _197
REMARK   88  A    between atoms: _199  and  _201
REMARK   89  A    between atoms: _201  and  _202
REMARK   90  A    between atoms: _204  and  _206
REMARK   91  A    between atoms: _206  and  _207
REMARK   92  A    between atoms: _206  and  _209
REMARK   93  A    between atoms: _209  and  _210
REMARK   94  A    between atoms: _213  and  _215
REMARK   95  A    between atoms: _215  and  _216
REMARK   96  A    between atoms: _215  and  _218
REMARK   97  A    between atoms: _221  and  _223
REMARK   98  A    between atoms: _223  and  _224
REMARK   99  A    between atoms: _223  and  _226
REMARK  100  A    between atoms: _226  and  _227
REMARK  101  A    between atoms: _229  and  _231
REMARK  102  A    between atoms: _231  and  _232
REMARK  103  A    between atoms: _231  and  _234
REMARK  104  A    between atoms: _234  and  _235
REMARK  105  A    between atoms: _245  and  _247
REMARK  106  A    between atoms: _247  and  _248
REMARK  107  A    between atoms: _250  and  _252
REMARK  108  A    between atoms: _252  and  _253
REMARK  109  A    between atoms: _252  and  _255
REMARK  110  A    between atoms: _255  and  _256
REMARK  111  A    between atoms: _258  and  _260
REMARK  112  A    between atoms: _260  and  _261
REMARK  113  A    between atoms: _263  and  _265
REMARK  114  A    between atoms: _265  and  _266
REMARK  115  A    between atoms: _265  and  _268
REMARK  116  A    between atoms: _268  and  _269
REMARK  117  A    between atoms: _270  and  _272
REMARK  118  A    between atoms: _272  and  _273
REMARK  119  A    between atoms: _276  and  _278
REMARK  120  A    between atoms: _278  and  _279
REMARK  121  A    between atoms: _278  and  _281
REMARK  122  A    between atoms: _281  and  _282
REMARK  123  A    between atoms: _282  and  _283
REMARK  124  A    between atoms: _288  and  _290
REMARK  125  A    between atoms: _290  and  _291
REMARK  126  A    between atoms: _290  and  _293
REMARK  127  A    between atoms: _293  and  _294
REMARK  128  A    between atoms: _294  and  _295
REMARK  129  A    between atoms: _295  and  _296
REMARK  130  A    between atoms: _296  and  _297
REMARK  131  A    between atoms: _302  and  _303
REMARK  132  A    between atoms: _308  and  _310
REMARK  133  A    between atoms: _310  and  _311
REMARK  134  A    between atoms: _313  and  _315
REMARK  135  A    between atoms: _315  and  _316
REMARK  136  A    between atoms: _315  and  _318
REMARK  137  A    between atoms: _321  and  _323
REMARK  138  A    between atoms: _323  and  _324
REMARK  139  A    between atoms: _323  and  _326
REMARK  140  A    between atoms: _326  and  _327
REMARK  141  A    between atoms: _332  and  _333
REMARK  142  A    between atoms: _335  and  _337
REMARK  143  A    between atoms: _337  and  _338
REMARK  144  A    between atoms: _337  and  _340
REMARK  145  A    between atoms: _340  and  _341
REMARK                            x       y       z     vdW  Elec       q    Type
REMARK                         _______ _______ _______ _____ _____    ______ ____
ROOT
ATOM      1  O   HOH     1      29.175  21.082  12.880  0.00  0.00    +0.000 OA
ENDROOT
TORSDOF 0
REMARK  Name = ../refined-set-2016/3nkk/3nkk_pocket.pdb
REMARK  145 active torsions:
REMARK  status: ('A' for Active; 'I' for Inactive)
REMARK    1  A    between atoms: _1  and  _5
REMARK    2  A    between atoms: _5  and  _6
REMARK    3  A    between atoms: _5  and  _8
REMARK    4  A    between atoms: _8  and  _9
REMARK    5  A    between atoms: _12  and  _14
REMARK    6  A    between atoms: _14  and  _15
REMARK    7  A    between atoms: _14  and  _17
REMARK    8  A    between atoms: _20  and  _22
REMARK    9  A    between atoms: _22  and  _23
REMARK   10  A    between atoms: _22  and  _25
REMARK   11  A    between atoms: _25  and  _26
REMARK   12  A    between atoms: _26  and  _50
REMARK   13  A    between atoms: _27  and  _29
REMARK   14  A    between atoms: _29  and  _30
REMARK   15  A    between atoms: _33  and  _35
REMARK   16  A    between atoms: _35  and  _36
REMARK   17  A    between atoms: _35  and  _38
REMARK   18  A    between atoms: _38  and  _39
REMARK   19  A    between atoms: _44  and  _46
REMARK   20  A    between atoms: _46  and  _47
REMARK   21  A    between atoms: _46  and  _49
REMARK   22  A    between atoms: _49  and  _50
REMARK   23  A    between atoms: _51  and  _53
REMARK   24  A    between atoms: _53  and  _54
REMARK   25  A    between atoms: _53  and  _56
REMARK   26  A    between atoms: _56  and  _57
REMARK   27  A    between atoms: _60  and  _62
REMARK   28  A    between atoms: _62  and  _63
REMARK   29  A    between atoms: _62  and  _65
REMARK   30  A    between atoms: _65  and  _66
REMARK   31  A    between atoms: _69  and  _71
REMARK   32  A    between atoms: _71  and  _72
REMARK   33  A    between atoms: _71  and  _74
REMARK   34  A    between atoms: _74  and  _75
REMARK   35  A    between atoms: _78  and  _80
REMARK   36  A    between atoms: _80  and  _81
REMARK   37  A    between atoms: _80  and  _83
REMARK   38  A    between atoms: _83  and  _84
REMARK   39  A    between atoms: _89  and  _91
REMARK   40  A    between atoms: _91  and  _92
REMARK   41  A    between atoms: _91  and  _94
REMARK   42  A    between atoms: _94  and  _95
REMARK   43  A    between atoms: _100  and  _101
REMARK   44  A    between atoms: _103  and  _105
REMARK   45  A    between atoms: _105  and  _106
REMARK   46  A    between atoms: _105  and  _108
REMARK   47  A    between atoms: _108  and  _109
REMARK   48  A    between atoms: _114  and  _115
REMARK   49  A    between atoms: _117  and  _119
REMARK   50  A    between atoms: _119  and  _120
REMARK   51  A    between atoms: _123  and  _125
REMARK   52  A    between atoms: _125  and  _126
REMARK   53  A    between atoms: _125  and  _128
REMARK   54  A    between atoms: _128  and  _129
REMARK   55  A    between atoms: _129  and  _130
REMARK   56  A    between atoms: _130  and  _131
REMARK   57  A    between atoms: _131  and  _132
REMARK   58  A    between atoms: _136  and  _138
REMARK   59  A    between atoms: _138  and  _139
REMARK   60  A    between atoms: _138  and  _141
REMARK   61  A    between atoms: _141  and  _142
REMARK   62  A    between atoms: _145  and  _147
REMARK   63  A    between atoms: _147  and  _148
REMARK   64  A    between atoms: _147  and  _150
REMARK   65  A    between atoms: _150  and  _151
REMARK   66  A    between atoms: _153  and  _155
REMARK   67  A    between atoms: _155  and  _156
REMARK   68  A    between atoms: _155  and  _158
REMARK   69  A    between atoms: _158  and  _159
REMARK   70  A    between atoms: _159  and  _269
REMARK   71  A    between atoms: _160  and  _162
REMARK   72  A    between atoms: _162  and  _163
REMARK   73  A    between atoms: _162  and  _165
REMARK   74  A    between atoms: _165  and  _166
REMARK   75  A    between atoms: _166  and  _167
REMARK   76  A    between atoms: _172  and  _174
REMARK   77  A    between atoms: _174  and  _175
REMARK   78  A    between atoms: _177  and  _179
REMARK   79  A    between atoms: _179  and  _180
REMARK   80  A    between atoms: _179  and  _182
REMARK   81  A    between atoms: _182  and  _183
REMARK   82  A    between atoms: _186  and  _188
REMARK   83  A    between atoms: _188  and  _189
REMARK   84  A    between atoms: _188  and  _191
REMARK   85  A    between atoms: _191  and  _192
REMARK   86  A    between atoms: _194  and  _196
REMARK   87  A    between atoms: _196  and  _197
REMARK   88  A    between atoms: _199  and  _201
REMARK   89  A    between atoms: _201  and  _202
REMARK   90  A    between atoms: _204  and  _206
REMARK   91  A    between atoms: _206  and  _207
REMARK   92  A    between atoms: _206  and  _209
REMARK   93  A    between atoms: _209  and  _210
REMARK   94  A    between atoms: _213  and  _215
REMARK   95  A    between atoms: _215  and  _216
REMARK   96  A    between atoms: _215  and  _218
REMARK   97  A    between atoms: _221  and  _223
REMARK   98  A    between atoms: _223  and  _224
REMARK   99  A    between atoms: _223  and  _226
REMARK  100  A    between atoms: _226  and  _227
REMARK  101  A    between atoms: _229  and  _231
REMARK  102  A    between atoms: _231  and  _232
REMARK  103  A    between atoms: _231  and  _234
REMARK  104  A    between atoms: _234  and  _235
REMARK  105  A    between atoms: _245  and  _247
REMARK  106  A    between atoms: _247  and  _248
REMARK  107  A    between atoms: _250  and  _252
REMARK  108  A    between atoms: _252  and  _253
REMARK  109  A    between atoms: _252  and  _255
REMARK  110  A    between atoms: _255  and  _256
REMARK  111  A    between atoms: _258  and  _260
REMARK  112  A    between atoms: _260  and  _261
REMARK  113  A    between atoms: _263  and  _265
REMARK  114  A    between atoms: _265  and  _266
REMARK  115  A    between atoms: _265  and  _268
REMARK  116  A    between atoms: _268  and  _269
REMARK  117  A    between atoms: _270  and  _272
REMARK  118  A    between atoms: _272  and  _273
REMARK  119  A    between atoms: _276  and  _278
REMARK  120  A    between atoms: _278  and  _279
REMARK  121  A    between atoms: _278  and  _281
REMARK  122  A    between atoms: _281  and  _282
REMARK  123  A    between atoms: _282  and  _283
REMARK  124  A    between atoms: _288  and  _290
REMARK  125  A    between atoms: _290  and  _291
REMARK  126  A    between atoms: _290  and  _293
REMARK  127  A    between atoms: _293  and  _294
REMARK  128  A    between atoms: _294  and  _295
REMARK  129  A    between atoms: _295  and  _296
REMARK  130  A    between atoms: _296  and  _297
REMARK  131  A    between atoms: _302  and  _303
REMARK  132  A    between atoms: _308  and  _310
REMARK  133  A    between atoms: _310  and  _311
REMARK  134  A    between atoms: _313  and  _315
REMARK  135  A    between atoms: _315  and  _316
REMARK  136  A    between atoms: _315  and  _318
REMARK  137  A    between atoms: _321  and  _323
REMARK  138  A    between atoms: _323  and  _324
REMARK  139  A    between atoms: _323  and  _326
REMARK  140  A    between atoms: _326  and  _327
REMARK  141  A    between atoms: _332  and  _333
REMARK  142  A    between atoms: _335  and  _337
REMARK  143  A    between atoms: _337  and  _338
REMARK  144  A    between atoms: _337  and  _340
REMARK  145  A    between atoms: _340  and  _341
REMARK                            x       y       z     vdW  Elec       q    Type
REMARK                         _______ _______ _______ _____ _____    ______ ____
ROOT
ATOM      1  O   HOH     1      31.783  13.991  10.314  0.00  0.00    +0.000 OA
ENDROOT
TORSDOF 0
REMARK  Name = ../refined-set-2016/3nkk/3nkk_pocket.pdb
REMARK  145 active torsions:
REMARK  status: ('A' for Active; 'I' for Inactive)
REMARK    1  A    between atoms: _1  and  _5
REMARK    2  A    between atoms: _5  and  _6
REMARK    3  A    between atoms: _5  and  _8
REMARK    4  A    between atoms: _8  and  _9
REMARK    5  A    between atoms: _12  and  _14
REMARK    6  A    between atoms: _14  and  _15
REMARK    7  A    between atoms: _14  and  _17
REMARK    8  A    between atoms: _20  and  _22
REMARK    9  A    between atoms: _22  and  _23
REMARK   10  A    between atoms: _22  and  _25
REMARK   11  A    between atoms: _25  and  _26
REMARK   12  A    between atoms: _26  and  _50
REMARK   13  A    between atoms: _27  and  _29
REMARK   14  A    between atoms: _29  and  _30
REMARK   15  A    between atoms: _33  and  _35
REMARK   16  A    between atoms: _35  and  _36
REMARK   17  A    between atoms: _35  and  _38
REMARK   18  A    between atoms: _38  and  _39
REMARK   19  A    between atoms: _44  and  _46
REMARK   20  A    between atoms: _46  and  _47
REMARK   21  A    between atoms: _46  and  _49
REMARK   22  A    between atoms: _49  and  _50
REMARK   23  A    between atoms: _51  and  _53
REMARK   24  A    between atoms: _53  and  _54
REMARK   25  A    between atoms: _53  and  _56
REMARK   26  A    between atoms: _56  and  _57
REMARK   27  A    between atoms: _60  and  _62
REMARK   28  A    between atoms: _62  and  _63
REMARK   29  A    between atoms: _62  and  _65
REMARK   30  A    between atoms: _65  and  _66
REMARK   31  A    between atoms: _69  and  _71
REMARK   32  A    between atoms: _71  and  _72
REMARK   33  A    between atoms: _71  and  _74
REMARK   34  A    between atoms: _74  and  _75
REMARK   35  A    between atoms: _78  and  _80
REMARK   36  A    between atoms: _80  and  _81
REMARK   37  A    between atoms: _80  and  _83
REMARK   38  A    between atoms: _83  and  _84
REMARK   39  A    between atoms: _89  and  _91
REMARK   40  A    between atoms: _91  and  _92
REMARK   41  A    between atoms: _91  and  _94
REMARK   42  A    between atoms: _94  and  _95
REMARK   43  A    between atoms: _100  and  _101
REMARK   44  A    between atoms: _103  and  _105
REMARK   45  A    between atoms: _105  and  _106
REMARK   46  A    between atoms: _105  and  _108
REMARK   47  A    between atoms: _108  and  _109
REMARK   48  A    between atoms: _114  and  _115
REMARK   49  A    between atoms: _117  and  _119
REMARK   50  A    between atoms: _119  and  _120
REMARK   51  A    between atoms: _123  and  _125
REMARK   52  A    between atoms: _125  and  _126
REMARK   53  A    between atoms: _125  and  _128
REMARK   54  A    between atoms: _128  and  _129
REMARK   55  A    between atoms: _129  and  _130
REMARK   56  A    between atoms: _130  and  _131
REMARK   57  A    between atoms: _131  and  _132
REMARK   58  A    between atoms: _136  and  _138
REMARK   59  A    between atoms: _138  and  _139
REMARK   60  A    between atoms: _138  and  _141
REMARK   61  A    between atoms: _141  and  _142
REMARK   62  A    between atoms: _145  and  _147
REMARK   63  A    between atoms: _147  and  _148
REMARK   64  A    between atoms: _147  and  _150
REMARK   65  A    between atoms: _150  and  _151
REMARK   66  A    between atoms: _153  and  _155
REMARK   67  A    between atoms: _155  and  _156
REMARK   68  A    between atoms: _155  and  _158
REMARK   69  A    between atoms: _158  and  _159
REMARK   70  A    between atoms: _159  and  _269
REMARK   71  A    between atoms: _160  and  _162
REMARK   72  A    between atoms: _162  and  _163
REMARK   73  A    between atoms: _162  and  _165
REMARK   74  A    between atoms: _165  and  _166
REMARK   75  A    between atoms: _166  and  _167
REMARK   76  A    between atoms: _172  and  _174
REMARK   77  A    between atoms: _174  and  _175
REMARK   78  A    between atoms: _177  and  _179
REMARK   79  A    between atoms: _179  and  _180
REMARK   80  A    between atoms: _179  and  _182
REMARK   81  A    between atoms: _182  and  _183
REMARK   82  A    between atoms: _186  and  _188
REMARK   83  A    between atoms: _188  and  _189
REMARK   84  A    between atoms: _188  and  _191
REMARK   85  A    between atoms: _191  and  _192
REMARK   86  A    between atoms: _194  and  _196
REMARK   87  A    between atoms: _196  and  _197
REMARK   88  A    between atoms: _199  and  _201
REMARK   89  A    between atoms: _201  and  _202
REMARK   90  A    between atoms: _204  and  _206
REMARK   91  A    between atoms: _206  and  _207
REMARK   92  A    between atoms: _206  and  _209
REMARK   93  A    between atoms: _209  and  _210
REMARK   94  A    between atoms: _213  and  _215
REMARK   95  A    between atoms: _215  and  _216
REMARK   96  A    between atoms: _215  and  _218
REMARK   97  A    between atoms: _221  and  _223
REMARK   98  A    between atoms: _223  and  _224
REMARK   99  A    between atoms: _223  and  _226
REMARK  100  A    between atoms: _226  and  _227
REMARK  101  A    between atoms: _229  and  _231
REMARK  102  A    between atoms: _231  and  _232
REMARK  103  A    between atoms: _231  and  _234
REMARK  104  A    between atoms: _234  and  _235
REMARK  105  A    between atoms: _245  and  _247
REMARK  106  A    between atoms: _247  and  _248
REMARK  107  A    between atoms: _250  and  _252
REMARK  108  A    between atoms: _252  and  _253
REMARK  109  A    between atoms: _252  and  _255
REMARK  110  A    between atoms: _255  and  _256
REMARK  111  A    between atoms: _258  and  _260
REMARK  112  A    between atoms: _260  and  _261
REMARK  113  A    between atoms: _263  and  _265
REMARK  114  A    between atoms: _265  and  _266
REMARK  115  A    between atoms: _265  and  _268
REMARK  116  A    between atoms: _268  and  _269
REMARK  117  A    between atoms: _270  and  _272
REMARK  118  A    between atoms: _272  and  _273
REMARK  119  A    between atoms: _276  and  _278
REMARK  120  A    between atoms: _278  and  _279
REMARK  121  A    between atoms: _278  and  _281
REMARK  122  A    between atoms: _281  and  _282
REMARK  123  A    between atoms: _282  and  _283
REMARK  124  A    between atoms: _288  and  _290
REMARK  125  A    between atoms: _290  and  _291
REMARK  126  A    between atoms: _290  and  _293
REMARK  127  A    between atoms: _293  and  _294
REMARK  128  A    between atoms: _294  and  _295
REMARK  129  A    between atoms: _295  and  _296
REMARK  130  A    between atoms: _296  and  _297
REMARK  131  A    between atoms: _302  and  _303
REMARK  132  A    between atoms: _308  and  _310
REMARK  133  A    between atoms: _310  and  _311
REMARK  134  A    between atoms: _313  and  _315
REMARK  135  A    between atoms: _315  and  _316
REMARK  136  A    between atoms: _315  and  _318
REMARK  137  A    between atoms: _321  and  _323
REMARK  138  A    between atoms: _323  and  _324
REMARK  139  A    between atoms: _323  and  _326
REMARK  140  A    between atoms: _326  and  _327
REMARK  141  A    between atoms: _332  and  _333
REMARK  142  A    between atoms: _335  and  _337
REMARK  143  A    between atoms: _337  and  _338
REMARK  144  A    between atoms: _337  and  _340
REMARK  145  A    between atoms: _340  and  _341
REMARK                            x       y       z     vdW  Elec       q    Type
REMARK                         _______ _______ _______ _____ _____    ______ ____
ROOT
ATOM      1  O   HOH     1      30.967  20.272   9.798  0.00  0.00    +0.000 OA
ENDROOT
TORSDOF 0
REMARK  Name = ../refined-set-2016/3nkk/3nkk_pocket.pdb
REMARK  145 active torsions:
REMARK  status: ('A' for Active; 'I' for Inactive)
REMARK    1  A    between atoms: _1  and  _5
REMARK    2  A    between atoms: _5  and  _6
REMARK    3  A    between atoms: _5  and  _8
REMARK    4  A    between atoms: _8  and  _9
REMARK    5  A    between atoms: _12  and  _14
REMARK    6  A    between atoms: _14  and  _15
REMARK    7  A    between atoms: _14  and  _17
REMARK    8  A    between atoms: _20  and  _22
REMARK    9  A    between atoms: _22  and  _23
REMARK   10  A    between atoms: _22  and  _25
REMARK   11  A    between atoms: _25  and  _26
REMARK   12  A    between atoms: _26  and  _50
REMARK   13  A    between atoms: _27  and  _29
REMARK   14  A    between atoms: _29  and  _30
REMARK   15  A    between atoms: _33  and  _35
REMARK   16  A    between atoms: _35  and  _36
REMARK   17  A    between atoms: _35  and  _38
REMARK   18  A    between atoms: _38  and  _39
REMARK   19  A    between atoms: _44  and  _46
REMARK   20  A    between atoms: _46  and  _47
REMARK   21  A    between atoms: _46  and  _49
REMARK   22  A    between atoms: _49  and  _50
REMARK   23  A    between atoms: _51  and  _53
REMARK   24  A    between atoms: _53  and  _54
REMARK   25  A    between atoms: _53  and  _56
REMARK   26  A    between atoms: _56  and  _57
REMARK   27  A    between atoms: _60  and  _62
REMARK   28  A    between atoms: _62  and  _63
REMARK   29  A    between atoms: _62  and  _65
REMARK   30  A    between atoms: _65  and  _66
REMARK   31  A    between atoms: _69  and  _71
REMARK   32  A    between atoms: _71  and  _72
REMARK   33  A    between atoms: _71  and  _74
REMARK   34  A    between atoms: _74  and  _75
REMARK   35  A    between atoms: _78  and  _80
REMARK   36  A    between atoms: _80  and  _81
REMARK   37  A    between atoms: _80  and  _83
REMARK   38  A    between atoms: _83  and  _84
REMARK   39  A    between atoms: _89  and  _91
REMARK   40  A    between atoms: _91  and  _92
REMARK   41  A    between atoms: _91  and  _94
REMARK   42  A    between atoms: _94  and  _95
REMARK   43  A    between atoms: _100  and  _101
REMARK   44  A    between atoms: _103  and  _105
REMARK   45  A    between atoms: _105  and  _106
REMARK   46  A    between atoms: _105  and  _108
REMARK   47  A    between atoms: _108  and  _109
REMARK   48  A    between atoms: _114  and  _115
REMARK   49  A    between atoms: _117  and  _119
REMARK   50  A    between atoms: _119  and  _120
REMARK   51  A    between atoms: _123  and  _125
REMARK   52  A    between atoms: _125  and  _126
REMARK   53  A    between atoms: _125  and  _128
REMARK   54  A    between atoms: _128  and  _129
REMARK   55  A    between atoms: _129  and  _130
REMARK   56  A    between atoms: _130  and  _131
REMARK   57  A    between atoms: _131  and  _132
REMARK   58  A    between atoms: _136  and  _138
REMARK   59  A    between atoms: _138  and  _139
REMARK   60  A    between atoms: _138  and  _141
REMARK   61  A    between atoms: _141  and  _142
REMARK   62  A    between atoms: _145  and  _147
REMARK   63  A    between atoms: _147  and  _148
REMARK   64  A    between atoms: _147  and  _150
REMARK   65  A    between atoms: _150  and  _151
REMARK   66  A    between atoms: _153  and  _155
REMARK   67  A    between atoms: _155  and  _156
REMARK   68  A    between atoms: _155  and  _158
REMARK   69  A    between atoms: _158  and  _159
REMARK   70  A    between atoms: _159  and  _269
REMARK   71  A    between atoms: _160  and  _162
REMARK   72  A    between atoms: _162  and  _163
REMARK   73  A    between atoms: _162  and  _165
REMARK   74  A    between atoms: _165  and  _166
REMARK   75  A    between atoms: _166  and  _167
REMARK   76  A    between atoms: _172  and  _174
REMARK   77  A    between atoms: _174  and  _175
REMARK   78  A    between atoms: _177  and  _179
REMARK   79  A    between atoms: _179  and  _180
REMARK   80  A    between atoms: _179  and  _182
REMARK   81  A    between atoms: _182  and  _183
REMARK   82  A    between atoms: _186  and  _188
REMARK   83  A    between atoms: _188  and  _189
REMARK   84  A    between atoms: _188  and  _191
REMARK   85  A    between atoms: _191  and  _192
REMARK   86  A    between atoms: _194  and  _196
REMARK   87  A    between atoms: _196  and  _197
REMARK   88  A    between atoms: _199  and  _201
REMARK   89  A    between atoms: _201  and  _202
REMARK   90  A    between atoms: _204  and  _206
REMARK   91  A    between atoms: _206  and  _207
REMARK   92  A    between atoms: _206  and  _209
REMARK   93  A    between atoms: _209  and  _210
REMARK   94  A    between atoms: _213  and  _215
REMARK   95  A    between atoms: _215  and  _216
REMARK   96  A    between atoms: _215  and  _218
REMARK   97  A    between atoms: _221  and  _223
REMARK   98  A    between atoms: _223  and  _224
REMARK   99  A    between atoms: _223  and  _226
REMARK  100  A    between atoms: _226  and  _227
REMARK  101  A    between atoms: _229  and  _231
REMARK  102  A    between atoms: _231  and  _232
REMARK  103  A    between atoms: _231  and  _234
REMARK  104  A    between atoms: _234  and  _235
REMARK  105  A    between atoms: _245  and  _247
REMARK  106  A    between atoms: _247  and  _248
REMARK  107  A    between atoms: _250  and  _252
REMARK  108  A    between atoms: _252  and  _253
REMARK  109  A    between atoms: _252  and  _255
REMARK  110  A    between atoms: _255  and  _256
REMARK  111  A    between atoms: _258  and  _260
REMARK  112  A    between atoms: _260  and  _261
REMARK  113  A    between atoms: _263  and  _265
REMARK  114  A    between atoms: _265  and  _266
REMARK  115  A    between atoms: _265  and  _268
REMARK  116  A    between atoms: _268  and  _269
REMARK  117  A    between atoms: _270  and  _272
REMARK  118  A    between atoms: _272  and  _273
REMARK  119  A    between atoms: _276  and  _278
REMARK  120  A    between atoms: _278  and  _279
REMARK  121  A    between atoms: _278  and  _281
REMARK  122  A    between atoms: _281  and  _282
REMARK  123  A    between atoms: _282  and  _283
REMARK  124  A    between atoms: _288  and  _290
REMARK  125  A    between atoms: _290  and  _291
REMARK  126  A    between atoms: _290  and  _293
REMARK  127  A    between atoms: _293  and  _294
REMARK  128  A    between atoms: _294  and  _295
REMARK  129  A    between atoms: _295  and  _296
REMARK  130  A    between atoms: _296  and  _297
REMARK  131  A    between atoms: _302  and  _303
REMARK  132  A    between atoms: _308  and  _310
REMARK  133  A    between atoms: _310  and  _311
REMARK  134  A    between atoms: _313  and  _315
REMARK  135  A    between atoms: _315  and  _316
REMARK  136  A    between atoms: _315  and  _318
REMARK  137  A    between atoms: _321  and  _323
REMARK  138  A    between atoms: _323  and  _324
REMARK  139  A    between atoms: _323  and  _326
REMARK  140  A    between atoms: _326  and  _327
REMARK  141  A    between atoms: _332  and  _333
REMARK  142  A    between atoms: _335  and  _337
REMARK  143  A    between atoms: _337  and  _338
REMARK  144  A    between atoms: _337  and  _340
REMARK  145  A    between atoms: _340  and  _341
REMARK                            x       y       z     vdW  Elec       q    Type
REMARK                         _______ _______ _______ _____ _____    ______ ____
ROOT
ATOM      1  O   HOH     1      29.224  12.482  23.315  0.00  0.00    +0.000 OA
ENDROOT
TORSDOF 0
REMARK  Name = ../refined-set-2016/3nkk/3nkk_pocket.pdb
REMARK  145 active torsions:
REMARK  status: ('A' for Active; 'I' for Inactive)
REMARK    1  A    between atoms: _1  and  _5
REMARK    2  A    between atoms: _5  and  _6
REMARK    3  A    between atoms: _5  and  _8
REMARK    4  A    between atoms: _8  and  _9
REMARK    5  A    between atoms: _12  and  _14
REMARK    6  A    between atoms: _14  and  _15
REMARK    7  A    between atoms: _14  and  _17
REMARK    8  A    between atoms: _20  and  _22
REMARK    9  A    between atoms: _22  and  _23
REMARK   10  A    between atoms: _22  and  _25
REMARK   11  A    between atoms: _25  and  _26
REMARK   12  A    between atoms: _26  and  _50
REMARK   13  A    between atoms: _27  and  _29
REMARK   14  A    between atoms: _29  and  _30
REMARK   15  A    between atoms: _33  and  _35
REMARK   16  A    between atoms: _35  and  _36
REMARK   17  A    between atoms: _35  and  _38
REMARK   18  A    between atoms: _38  and  _39
REMARK   19  A    between atoms: _44  and  _46
REMARK   20  A    between atoms: _46  and  _47
REMARK   21  A    between atoms: _46  and  _49
REMARK   22  A    between atoms: _49  and  _50
REMARK   23  A    between atoms: _51  and  _53
REMARK   24  A    between atoms: _53  and  _54
REMARK   25  A    between atoms: _53  and  _56
REMARK   26  A    between atoms: _56  and  _57
REMARK   27  A    between atoms: _60  and  _62
REMARK   28  A    between atoms: _62  and  _63
REMARK   29  A    between atoms: _62  and  _65
REMARK   30  A    between atoms: _65  and  _66
REMARK   31  A    between atoms: _69  and  _71
REMARK   32  A    between atoms: _71  and  _72
REMARK   33  A    between atoms: _71  and  _74
REMARK   34  A    between atoms: _74  and  _75
REMARK   35  A    between atoms: _78  and  _80
REMARK   36  A    between atoms: _80  and  _81
REMARK   37  A    between atoms: _80  and  _83
REMARK   38  A    between atoms: _83  and  _84
REMARK   39  A    between atoms: _89  and  _91
REMARK   40  A    between atoms: _91  and  _92
REMARK   41  A    between atoms: _91  and  _94
REMARK   42  A    between atoms: _94  and  _95
REMARK   43  A    between atoms: _100  and  _101
REMARK   44  A    between atoms: _103  and  _105
REMARK   45  A    between atoms: _105  and  _106
REMARK   46  A    between atoms: _105  and  _108
REMARK   47  A    between atoms: _108  and  _109
REMARK   48  A    between atoms: _114  and  _115
REMARK   49  A    between atoms: _117  and  _119
REMARK   50  A    between atoms: _119  and  _120
REMARK   51  A    between atoms: _123  and  _125
REMARK   52  A    between atoms: _125  and  _126
REMARK   53  A    between atoms: _125  and  _128
REMARK   54  A    between atoms: _128  and  _129
REMARK   55  A    between atoms: _129  and  _130
REMARK   56  A    between atoms: _130  and  _131
REMARK   57  A    between atoms: _131  and  _132
REMARK   58  A    between atoms: _136  and  _138
REMARK   59  A    between atoms: _138  and  _139
REMARK   60  A    between atoms: _138  and  _141
REMARK   61  A    between atoms: _141  and  _142
REMARK   62  A    between atoms: _145  and  _147
REMARK   63  A    between atoms: _147  and  _148
REMARK   64  A    between atoms: _147  and  _150
REMARK   65  A    between atoms: _150  and  _151
REMARK   66  A    between atoms: _153  and  _155
REMARK   67  A    between atoms: _155  and  _156
REMARK   68  A    between atoms: _155  and  _158
REMARK   69  A    between atoms: _158  and  _159
REMARK   70  A    between atoms: _159  and  _269
REMARK   71  A    between atoms: _160  and  _162
REMARK   72  A    between atoms: _162  and  _163
REMARK   73  A    between atoms: _162  and  _165
REMARK   74  A    between atoms: _165  and  _166
REMARK   75  A    between atoms: _166  and  _167
REMARK   76  A    between atoms: _172  and  _174
REMARK   77  A    between atoms: _174  and  _175
REMARK   78  A    between atoms: _177  and  _179
REMARK   79  A    between atoms: _179  and  _180
REMARK   80  A    between atoms: _179  and  _182
REMARK   81  A    between atoms: _182  and  _183
REMARK   82  A    between atoms: _186  and  _188
REMARK   83  A    between atoms: _188  and  _189
REMARK   84  A    between atoms: _188  and  _191
REMARK   85  A    between atoms: _191  and  _192
REMARK   86  A    between atoms: _194  and  _196
REMARK   87  A    between atoms: _196  and  _197
REMARK   88  A    between atoms: _199  and  _201
REMARK   89  A    between atoms: _201  and  _202
REMARK   90  A    between atoms: _204  and  _206
REMARK   91  A    between atoms: _206  and  _207
REMARK   92  A    between atoms: _206  and  _209
REMARK   93  A    between atoms: _209  and  _210
REMARK   94  A    between atoms: _213  and  _215
REMARK   95  A    between atoms: _215  and  _216
REMARK   96  A    between atoms: _215  and  _218
REMARK   97  A    between atoms: _221  and  _223
REMARK   98  A    between atoms: _223  and  _224
REMARK   99  A    between atoms: _223  and  _226
REMARK  100  A    between atoms: _226  and  _227
REMARK  101  A    between atoms: _229  and  _231
REMARK  102  A    between atoms: _231  and  _232
REMARK  103  A    between atoms: _231  and  _234
REMARK  104  A    between atoms: _234  and  _235
REMARK  105  A    between atoms: _245  and  _247
REMARK  106  A    between atoms: _247  and  _248
REMARK  107  A    between atoms: _250  and  _252
REMARK  108  A    between atoms: _252  and  _253
REMARK  109  A    between atoms: _252  and  _255
REMARK  110  A    between atoms: _255  and  _256
REMARK  111  A    between atoms: _258  and  _260
REMARK  112  A    between atoms: _260  and  _261
REMARK  113  A    between atoms: _263  and  _265
REMARK  114  A    between atoms: _265  and  _266
REMARK  115  A    between atoms: _265  and  _268
REMARK  116  A    between atoms: _268  and  _269
REMARK  117  A    between atoms: _270  and  _272
REMARK  118  A    between atoms: _272  and  _273
REMARK  119  A    between atoms: _276  and  _278
REMARK  120  A    between atoms: _278  and  _279
REMARK  121  A    between atoms: _278  and  _281
REMARK  122  A    between atoms: _281  and  _282
REMARK  123  A    between atoms: _282  and  _283
REMARK  124  A    between atoms: _288  and  _290
REMARK  125  A    between atoms: _290  and  _291
REMARK  126  A    between atoms: _290  and  _293
REMARK  127  A    between atoms: _293  and  _294
REMARK  128  A    between atoms: _294  and  _295
REMARK  129  A    between atoms: _295  and  _296
REMARK  130  A    between atoms: _296  and  _297
REMARK  131  A    between atoms: _302  and  _303
REMARK  132  A    between atoms: _308  and  _310
REMARK  133  A    between atoms: _310  and  _311
REMARK  134  A    between atoms: _313  and  _315
REMARK  135  A    between atoms: _315  and  _316
REMARK  136  A    between atoms: _315  and  _318
REMARK  137  A    between atoms: _321  and  _323
REMARK  138  A    between atoms: _323  and  _324
REMARK  139  A    between atoms: _323  and  _326
REMARK  140  A    between atoms: _326  and  _327
REMARK  141  A    between atoms: _332  and  _333
REMARK  142  A    between atoms: _335  and  _337
REMARK  143  A    between atoms: _337  and  _338
REMARK  144  A    between atoms: _337  and  _340
REMARK  145  A    between atoms: _340  and  _341
REMARK                            x       y       z     vdW  Elec       q    Type
REMARK                         _______ _______ _______ _____ _____    ______ ____
ROOT
ATOM      1  O   HOH     1      31.787  17.645   9.522  0.00  0.00    +0.000 OA
ENDROOT
TORSDOF 0
REMARK  Name = ../refined-set-2016/3nkk/3nkk_pocket.pdb
REMARK  145 active torsions:
REMARK  status: ('A' for Active; 'I' for Inactive)
REMARK    1  A    between atoms: _1  and  _5
REMARK    2  A    between atoms: _5  and  _6
REMARK    3  A    between atoms: _5  and  _8
REMARK    4  A    between atoms: _8  and  _9
REMARK    5  A    between atoms: _12  and  _14
REMARK    6  A    between atoms: _14  and  _15
REMARK    7  A    between atoms: _14  and  _17
REMARK    8  A    between atoms: _20  and  _22
REMARK    9  A    between atoms: _22  and  _23
REMARK   10  A    between atoms: _22  and  _25
REMARK   11  A    between atoms: _25  and  _26
REMARK   12  A    between atoms: _26  and  _50
REMARK   13  A    between atoms: _27  and  _29
REMARK   14  A    between atoms: _29  and  _30
REMARK   15  A    between atoms: _33  and  _35
REMARK   16  A    between atoms: _35  and  _36
REMARK   17  A    between atoms: _35  and  _38
REMARK   18  A    between atoms: _38  and  _39
REMARK   19  A    between atoms: _44  and  _46
REMARK   20  A    between atoms: _46  and  _47
REMARK   21  A    between atoms: _46  and  _49
REMARK   22  A    between atoms: _49  and  _50
REMARK   23  A    between atoms: _51  and  _53
REMARK   24  A    between atoms: _53  and  _54
REMARK   25  A    between atoms: _53  and  _56
REMARK   26  A    between atoms: _56  and  _57
REMARK   27  A    between atoms: _60  and  _62
REMARK   28  A    between atoms: _62  and  _63
REMARK   29  A    between atoms: _62  and  _65
REMARK   30  A    between atoms: _65  and  _66
REMARK   31  A    between atoms: _69  and  _71
REMARK   32  A    between atoms: _71  and  _72
REMARK   33  A    between atoms: _71  and  _74
REMARK   34  A    between atoms: _74  and  _75
REMARK   35  A    between atoms: _78  and  _80
REMARK   36  A    between atoms: _80  and  _81
REMARK   37  A    between atoms: _80  and  _83
REMARK   38  A    between atoms: _83  and  _84
REMARK   39  A    between atoms: _89  and  _91
REMARK   40  A    between atoms: _91  and  _92
REMARK   41  A    between atoms: _91  and  _94
REMARK   42  A    between atoms: _94  and  _95
REMARK   43  A    between atoms: _100  and  _101
REMARK   44  A    between atoms: _103  and  _105
REMARK   45  A    between atoms: _105  and  _106
REMARK   46  A    between atoms: _105  and  _108
REMARK   47  A    between atoms: _108  and  _109
REMARK   48  A    between atoms: _114  and  _115
REMARK   49  A    between atoms: _117  and  _119
REMARK   50  A    between atoms: _119  and  _120
REMARK   51  A    between atoms: _123  and  _125
REMARK   52  A    between atoms: _125  and  _126
REMARK   53  A    between atoms: _125  and  _128
REMARK   54  A    between atoms: _128  and  _129
REMARK   55  A    between atoms: _129  and  _130
REMARK   56  A    between atoms: _130  and  _131
REMARK   57  A    between atoms: _131  and  _132
REMARK   58  A    between atoms: _136  and  _138
REMARK   59  A    between atoms: _138  and  _139
REMARK   60  A    between atoms: _138  and  _141
REMARK   61  A    between atoms: _141  and  _142
REMARK   62  A    between atoms: _145  and  _147
REMARK   63  A    between atoms: _147  and  _148
REMARK   64  A    between atoms: _147  and  _150
REMARK   65  A    between atoms: _150  and  _151
REMARK   66  A    between atoms: _153  and  _155
REMARK   67  A    between atoms: _155  and  _156
REMARK   68  A    between atoms: _155  and  _158
REMARK   69  A    between atoms: _158  and  _159
REMARK   70  A    between atoms: _159  and  _269
REMARK   71  A    between atoms: _160  and  _162
REMARK   72  A    between atoms: _162  and  _163
REMARK   73  A    between atoms: _162  and  _165
REMARK   74  A    between atoms: _165  and  _166
REMARK   75  A    between atoms: _166  and  _167
REMARK   76  A    between atoms: _172  and  _174
REMARK   77  A    between atoms: _174  and  _175
REMARK   78  A    between atoms: _177  and  _179
REMARK   79  A    between atoms: _179  and  _180
REMARK   80  A    between atoms: _179  and  _182
REMARK   81  A    between atoms: _182  and  _183
REMARK   82  A    between atoms: _186  and  _188
REMARK   83  A    between atoms: _188  and  _189
REMARK   84  A    between atoms: _188  and  _191
REMARK   85  A    between atoms: _191  and  _192
REMARK   86  A    between atoms: _194  and  _196
REMARK   87  A    between atoms: _196  and  _197
REMARK   88  A    between atoms: _199  and  _201
REMARK   89  A    between atoms: _201  and  _202
REMARK   90  A    between atoms: _204  and  _206
REMARK   91  A    between atoms: _206  and  _207
REMARK   92  A    between atoms: _206  and  _209
REMARK   93  A    between atoms: _209  and  _210
REMARK   94  A    between atoms: _213  and  _215
REMARK   95  A    between atoms: _215  and  _216
REMARK   96  A    between atoms: _215  and  _218
REMARK   97  A    between atoms: _221  and  _223
REMARK   98  A    between atoms: _223  and  _224
REMARK   99  A    between atoms: _223  and  _226
REMARK  100  A    between atoms: _226  and  _227
REMARK  101  A    between atoms: _229  and  _231
REMARK  102  A    between atoms: _231  and  _232
REMARK  103  A    between atoms: _231  and  _234
REMARK  104  A    between atoms: _234  and  _235
REMARK  105  A    between atoms: _245  and  _247
REMARK  106  A    between atoms: _247  and  _248
REMARK  107  A    between atoms: _250  and  _252
REMARK  108  A    between atoms: _252  and  _253
REMARK  109  A    between atoms: _252  and  _255
REMARK  110  A    between atoms: _255  and  _256
REMARK  111  A    between atoms: _258  and  _260
REMARK  112  A    between atoms: _260  and  _261
REMARK  113  A    between atoms: _263  and  _265
REMARK  114  A    between atoms: _265  and  _266
REMARK  115  A    between atoms: _265  and  _268
REMARK  116  A    between atoms: _268  and  _269
REMARK  117  A    between atoms: _270  and  _272
REMARK  118  A    between atoms: _272  and  _273
REMARK  119  A    between atoms: _276  and  _278
REMARK  120  A    between atoms: _278  and  _279
REMARK  121  A    between atoms: _278  and  _281
REMARK  122  A    between atoms: _281  and  _282
REMARK  123  A    between atoms: _282  and  _283
REMARK  124  A    between atoms: _288  and  _290
REMARK  125  A    between atoms: _290  and  _291
REMARK  126  A    between atoms: _290  and  _293
REMARK  127  A    between atoms: _293  and  _294
REMARK  128  A    between atoms: _294  and  _295
REMARK  129  A    between atoms: _295  and  _296
REMARK  130  A    between atoms: _296  and  _297
REMARK  131  A    between atoms: _302  and  _303
REMARK  132  A    between atoms: _308  and  _310
REMARK  133  A    between atoms: _310  and  _311
REMARK  134  A    between atoms: _313  and  _315
REMARK  135  A    between atoms: _315  and  _316
REMARK  136  A    between atoms: _315  and  _318
REMARK  137  A    between atoms: _321  and  _323
REMARK  138  A    between atoms: _323  and  _324
REMARK  139  A    between atoms: _323  and  _326
REMARK  140  A    between atoms: _326  and  _327
REMARK  141  A    between atoms: _332  and  _333
REMARK  142  A    between atoms: _335  and  _337
REMARK  143  A    between atoms: _337  and  _338
REMARK  144  A    between atoms: _337  and  _340
REMARK  145  A    between atoms: _340  and  _341
REMARK                            x       y       z     vdW  Elec       q    Type
REMARK                         _______ _______ _______ _____ _____    ______ ____
ROOT
ATOM      1  O   HOH     1      25.981   8.333  12.242  0.00  0.00    +0.000 OA
ENDROOT
TORSDOF 0
REMARK  Name = ../refined-set-2016/3nkk/3nkk_pocket.pdb
REMARK  145 active torsions:
REMARK  status: ('A' for Active; 'I' for Inactive)
REMARK    1  A    between atoms: _1  and  _5
REMARK    2  A    between atoms: _5  and  _6
REMARK    3  A    between atoms: _5  and  _8
REMARK    4  A    between atoms: _8  and  _9
REMARK    5  A    between atoms: _12  and  _14
REMARK    6  A    between atoms: _14  and  _15
REMARK    7  A    between atoms: _14  and  _17
REMARK    8  A    between atoms: _20  and  _22
REMARK    9  A    between atoms: _22  and  _23
REMARK   10  A    between atoms: _22  and  _25
REMARK   11  A    between atoms: _25  and  _26
REMARK   12  A    between atoms: _26  and  _50
REMARK   13  A    between atoms: _27  and  _29
REMARK   14  A    between atoms: _29  and  _30
REMARK   15  A    between atoms: _33  and  _35
REMARK   16  A    between atoms: _35  and  _36
REMARK   17  A    between atoms: _35  and  _38
REMARK   18  A    between atoms: _38  and  _39
REMARK   19  A    between atoms: _44  and  _46
REMARK   20  A    between atoms: _46  and  _47
REMARK   21  A    between atoms: _46  and  _49
REMARK   22  A    between atoms: _49  and  _50
REMARK   23  A    between atoms: _51  and  _53
REMARK   24  A    between atoms: _53  and  _54
REMARK   25  A    between atoms: _53  and  _56
REMARK   26  A    between atoms: _56  and  _57
REMARK   27  A    between atoms: _60  and  _62
REMARK   28  A    between atoms: _62  and  _63
REMARK   29  A    between atoms: _62  and  _65
REMARK   30  A    between atoms: _65  and  _66
REMARK   31  A    between atoms: _69  and  _71
REMARK   32  A    between atoms: _71  and  _72
REMARK   33  A    between atoms: _71  and  _74
REMARK   34  A    between atoms: _74  and  _75
REMARK   35  A    between atoms: _78  and  _80
REMARK   36  A    between atoms: _80  and  _81
REMARK   37  A    between atoms: _80  and  _83
REMARK   38  A    between atoms: _83  and  _84
REMARK   39  A    between atoms: _89  and  _91
REMARK   40  A    between atoms: _91  and  _92
REMARK   41  A    between atoms: _91  and  _94
REMARK   42  A    between atoms: _94  and  _95
REMARK   43  A    between atoms: _100  and  _101
REMARK   44  A    between atoms: _103  and  _105
REMARK   45  A    between atoms: _105  and  _106
REMARK   46  A    between atoms: _105  and  _108
REMARK   47  A    between atoms: _108  and  _109
REMARK   48  A    between atoms: _114  and  _115
REMARK   49  A    between atoms: _117  and  _119
REMARK   50  A    between atoms: _119  and  _120
REMARK   51  A    between atoms: _123  and  _125
REMARK   52  A    between atoms: _125  and  _126
REMARK   53  A    between atoms: _125  and  _128
REMARK   54  A    between atoms: _128  and  _129
REMARK   55  A    between atoms: _129  and  _130
REMARK   56  A    between atoms: _130  and  _131
REMARK   57  A    between atoms: _131  and  _132
REMARK   58  A    between atoms: _136  and  _138
REMARK   59  A    between atoms: _138  and  _139
REMARK   60  A    between atoms: _138  and  _141
REMARK   61  A    between atoms: _141  and  _142
REMARK   62  A    between atoms: _145  and  _147
REMARK   63  A    between atoms: _147  and  _148
REMARK   64  A    between atoms: _147  and  _150
REMARK   65  A    between atoms: _150  and  _151
REMARK   66  A    between atoms: _153  and  _155
REMARK   67  A    between atoms: _155  and  _156
REMARK   68  A    between atoms: _155  and  _158
REMARK   69  A    between atoms: _158  and  _159
REMARK   70  A    between atoms: _159  and  _269
REMARK   71  A    between atoms: _160  and  _162
REMARK   72  A    between atoms: _162  and  _163
REMARK   73  A    between atoms: _162  and  _165
REMARK   74  A    between atoms: _165  and  _166
REMARK   75  A    between atoms: _166  and  _167
REMARK   76  A    between atoms: _172  and  _174
REMARK   77  A    between atoms: _174  and  _175
REMARK   78  A    between atoms: _177  and  _179
REMARK   79  A    between atoms: _179  and  _180
REMARK   80  A    between atoms: _179  and  _182
REMARK   81  A    between atoms: _182  and  _183
REMARK   82  A    between atoms: _186  and  _188
REMARK   83  A    between atoms: _188  and  _189
REMARK   84  A    between atoms: _188  and  _191
REMARK   85  A    between atoms: _191  and  _192
REMARK   86  A    between atoms: _194  and  _196
REMARK   87  A    between atoms: _196  and  _197
REMARK   88  A    between atoms: _199  and  _201
REMARK   89  A    between atoms: _201  and  _202
REMARK   90  A    between atoms: _204  and  _206
REMARK   91  A    between atoms: _206  and  _207
REMARK   92  A    between atoms: _206  and  _209
REMARK   93  A    between atoms: _209  and  _210
REMARK   94  A    between atoms: _213  and  _215
REMARK   95  A    between atoms: _215  and  _216
REMARK   96  A    between atoms: _215  and  _218
REMARK   97  A    between atoms: _221  and  _223
REMARK   98  A    between atoms: _223  and  _224
REMARK   99  A    between atoms: _223  and  _226
REMARK  100  A    between atoms: _226  and  _227
REMARK  101  A    between atoms: _229  and  _231
REMARK  102  A    between atoms: _231  and  _232
REMARK  103  A    between atoms: _231  and  _234
REMARK  104  A    between atoms: _234  and  _235
REMARK  105  A    between atoms: _245  and  _247
REMARK  106  A    between atoms: _247  and  _248
REMARK  107  A    between atoms: _250  and  _252
REMARK  108  A    between atoms: _252  and  _253
REMARK  109  A    between atoms: _252  and  _255
REMARK  110  A    between atoms: _255  and  _256
REMARK  111  A    between atoms: _258  and  _260
REMARK  112  A    between atoms: _260  and  _261
REMARK  113  A    between atoms: _263  and  _265
REMARK  114  A    between atoms: _265  and  _266
REMARK  115  A    between atoms: _265  and  _268
REMARK  116  A    between atoms: _268  and  _269
REMARK  117  A    between atoms: _270  and  _272
REMARK  118  A    between atoms: _272  and  _273
REMARK  119  A    between atoms: _276  and  _278
REMARK  120  A    between atoms: _278  and  _279
REMARK  121  A    between atoms: _278  and  _281
REMARK  122  A    between atoms: _281  and  _282
REMARK  123  A    between atoms: _282  and  _283
REMARK  124  A    between atoms: _288  and  _290
REMARK  125  A    between atoms: _290  and  _291
REMARK  126  A    between atoms: _290  and  _293
REMARK  127  A    between atoms: _293  and  _294
REMARK  128  A    between atoms: _294  and  _295
REMARK  129  A    between atoms: _295  and  _296
REMARK  130  A    between atoms: _296  and  _297
REMARK  131  A    between atoms: _302  and  _303
REMARK  132  A    between atoms: _308  and  _310
REMARK  133  A    between atoms: _310  and  _311
REMARK  134  A    between atoms: _313  and  _315
REMARK  135  A    between atoms: _315  and  _316
REMARK  136  A    between atoms: _315  and  _318
REMARK  137  A    between atoms: _321  and  _323
REMARK  138  A    between atoms: _323  and  _324
REMARK  139  A    between atoms: _323  and  _326
REMARK  140  A    between atoms: _326  and  _327
REMARK  141  A    between atoms: _332  and  _333
REMARK  142  A    between atoms: _335  and  _337
REMARK  143  A    between atoms: _337  and  _338
REMARK  144  A    between atoms: _337  and  _340
REMARK  145  A    between atoms: _340  and  _341
REMARK                            x       y       z     vdW  Elec       q    Type
REMARK                         _______ _______ _______ _____ _____    ______ ____
ROOT
ATOM      1  O   HOH     1      35.648  10.815  12.928  0.00  0.00    +0.000 OA
ENDROOT
TORSDOF 0
REMARK  Name = ../refined-set-2016/3nkk/3nkk_pocket.pdb
REMARK  145 active torsions:
REMARK  status: ('A' for Active; 'I' for Inactive)
REMARK    1  A    between atoms: _1  and  _5
REMARK    2  A    between atoms: _5  and  _6
REMARK    3  A    between atoms: _5  and  _8
REMARK    4  A    between atoms: _8  and  _9
REMARK    5  A    between atoms: _12  and  _14
REMARK    6  A    between atoms: _14  and  _15
REMARK    7  A    between atoms: _14  and  _17
REMARK    8  A    between atoms: _20  and  _22
REMARK    9  A    between atoms: _22  and  _23
REMARK   10  A    between atoms: _22  and  _25
REMARK   11  A    between atoms: _25  and  _26
REMARK   12  A    between atoms: _26  and  _50
REMARK   13  A    between atoms: _27  and  _29
REMARK   14  A    between atoms: _29  and  _30
REMARK   15  A    between atoms: _33  and  _35
REMARK   16  A    between atoms: _35  and  _36
REMARK   17  A    between atoms: _35  and  _38
REMARK   18  A    between atoms: _38  and  _39
REMARK   19  A    between atoms: _44  and  _46
REMARK   20  A    between atoms: _46  and  _47
REMARK   21  A    between atoms: _46  and  _49
REMARK   22  A    between atoms: _49  and  _50
REMARK   23  A    between atoms: _51  and  _53
REMARK   24  A    between atoms: _53  and  _54
REMARK   25  A    between atoms: _53  and  _56
REMARK   26  A    between atoms: _56  and  _57
REMARK   27  A    between atoms: _60  and  _62
REMARK   28  A    between atoms: _62  and  _63
REMARK   29  A    between atoms: _62  and  _65
REMARK   30  A    between atoms: _65  and  _66
REMARK   31  A    between atoms: _69  and  _71
REMARK   32  A    between atoms: _71  and  _72
REMARK   33  A    between atoms: _71  and  _74
REMARK   34  A    between atoms: _74  and  _75
REMARK   35  A    between atoms: _78  and  _80
REMARK   36  A    between atoms: _80  and  _81
REMARK   37  A    between atoms: _80  and  _83
REMARK   38  A    between atoms: _83  and  _84
REMARK   39  A    between atoms: _89  and  _91
REMARK   40  A    between atoms: _91  and  _92
REMARK   41  A    between atoms: _91  and  _94
REMARK   42  A    between atoms: _94  and  _95
REMARK   43  A    between atoms: _100  and  _101
REMARK   44  A    between atoms: _103  and  _105
REMARK   45  A    between atoms: _105  and  _106
REMARK   46  A    between atoms: _105  and  _108
REMARK   47  A    between atoms: _108  and  _109
REMARK   48  A    between atoms: _114  and  _115
REMARK   49  A    between atoms: _117  and  _119
REMARK   50  A    between atoms: _119  and  _120
REMARK   51  A    between atoms: _123  and  _125
REMARK   52  A    between atoms: _125  and  _126
REMARK   53  A    between atoms: _125  and  _128
REMARK   54  A    between atoms: _128  and  _129
REMARK   55  A    between atoms: _129  and  _130
REMARK   56  A    between atoms: _130  and  _131
REMARK   57  A    between atoms: _131  and  _132
REMARK   58  A    between atoms: _136  and  _138
REMARK   59  A    between atoms: _138  and  _139
REMARK   60  A    between atoms: _138  and  _141
REMARK   61  A    between atoms: _141  and  _142
REMARK   62  A    between atoms: _145  and  _147
REMARK   63  A    between atoms: _147  and  _148
REMARK   64  A    between atoms: _147  and  _150
REMARK   65  A    between atoms: _150  and  _151
REMARK   66  A    between atoms: _153  and  _155
REMARK   67  A    between atoms: _155  and  _156
REMARK   68  A    between atoms: _155  and  _158
REMARK   69  A    between atoms: _158  and  _159
REMARK   70  A    between atoms: _159  and  _269
REMARK   71  A    between atoms: _160  and  _162
REMARK   72  A    between atoms: _162  and  _163
REMARK   73  A    between atoms: _162  and  _165
REMARK   74  A    between atoms: _165  and  _166
REMARK   75  A    between atoms: _166  and  _167
REMARK   76  A    between atoms: _172  and  _174
REMARK   77  A    between atoms: _174  and  _175
REMARK   78  A    between atoms: _177  and  _179
REMARK   79  A    between atoms: _179  and  _180
REMARK   80  A    between atoms: _179  and  _182
REMARK   81  A    between atoms: _182  and  _183
REMARK   82  A    between atoms: _186  and  _188
REMARK   83  A    between atoms: _188  and  _189
REMARK   84  A    between atoms: _188  and  _191
REMARK   85  A    between atoms: _191  and  _192
REMARK   86  A    between atoms: _194  and  _196
REMARK   87  A    between atoms: _196  and  _197
REMARK   88  A    between atoms: _199  and  _201
REMARK   89  A    between atoms: _201  and  _202
REMARK   90  A    between atoms: _204  and  _206
REMARK   91  A    between atoms: _206  and  _207
REMARK   92  A    between atoms: _206  and  _209
REMARK   93  A    between atoms: _209  and  _210
REMARK   94  A    between atoms: _213  and  _215
REMARK   95  A    between atoms: _215  and  _216
REMARK   96  A    between atoms: _215  and  _218
REMARK   97  A    between atoms: _221  and  _223
REMARK   98  A    between atoms: _223  and  _224
REMARK   99  A    between atoms: _223  and  _226
REMARK  100  A    between atoms: _226  and  _227
REMARK  101  A    between atoms: _229  and  _231
REMARK  102  A    between atoms: _231  and  _232
REMARK  103  A    between atoms: _231  and  _234
REMARK  104  A    between atoms: _234  and  _235
REMARK  105  A    between atoms: _245  and  _247
REMARK  106  A    between atoms: _247  and  _248
REMARK  107  A    between atoms: _250  and  _252
REMARK  108  A    between atoms: _252  and  _253
REMARK  109  A    between atoms: _252  and  _255
REMARK  110  A    between atoms: _255  and  _256
REMARK  111  A    between atoms: _258  and  _260
REMARK  112  A    between atoms: _260  and  _261
REMARK  113  A    between atoms: _263  and  _265
REMARK  114  A    between atoms: _265  and  _266
REMARK  115  A    between atoms: _265  and  _268
REMARK  116  A    between atoms: _268  and  _269
REMARK  117  A    between atoms: _270  and  _272
REMARK  118  A    between atoms: _272  and  _273
REMARK  119  A    between atoms: _276  and  _278
REMARK  120  A    between atoms: _278  and  _279
REMARK  121  A    between atoms: _278  and  _281
REMARK  122  A    between atoms: _281  and  _282
REMARK  123  A    between atoms: _282  and  _283
REMARK  124  A    between atoms: _288  and  _290
REMARK  125  A    between atoms: _290  and  _291
REMARK  126  A    between atoms: _290  and  _293
REMARK  127  A    between atoms: _293  and  _294
REMARK  128  A    between atoms: _294  and  _295
REMARK  129  A    between atoms: _295  and  _296
REMARK  130  A    between atoms: _296  and  _297
REMARK  131  A    between atoms: _302  and  _303
REMARK  132  A    between atoms: _308  and  _310
REMARK  133  A    between atoms: _310  and  _311
REMARK  134  A    between atoms: _313  and  _315
REMARK  135  A    between atoms: _315  and  _316
REMARK  136  A    between atoms: _315  and  _318
REMARK  137  A    between atoms: _321  and  _323
REMARK  138  A    between atoms: _323  and  _324
REMARK  139  A    between atoms: _323  and  _326
REMARK  140  A    between atoms: _326  and  _327
REMARK  141  A    between atoms: _332  and  _333
REMARK  142  A    between atoms: _335  and  _337
REMARK  143  A    between atoms: _337  and  _338
REMARK  144  A    between atoms: _337  and  _340
REMARK  145  A    between atoms: _340  and  _341
REMARK                            x       y       z     vdW  Elec       q    Type
REMARK                         _______ _______ _______ _____ _____    ______ ____
ROOT
ATOM      1  O   HOH     1      24.867  11.075  19.237  0.00  0.00    +0.000 OA
ENDROOT
TORSDOF 0
REMARK  Name = ../refined-set-2016/3nkk/3nkk_pocket.pdb
REMARK  145 active torsions:
REMARK  status: ('A' for Active; 'I' for Inactive)
REMARK    1  A    between atoms: _1  and  _5
REMARK    2  A    between atoms: _5  and  _6
REMARK    3  A    between atoms: _5  and  _8
REMARK    4  A    between atoms: _8  and  _9
REMARK    5  A    between atoms: _12  and  _14
REMARK    6  A    between atoms: _14  and  _15
REMARK    7  A    between atoms: _14  and  _17
REMARK    8  A    between atoms: _20  and  _22
REMARK    9  A    between atoms: _22  and  _23
REMARK   10  A    between atoms: _22  and  _25
REMARK   11  A    between atoms: _25  and  _26
REMARK   12  A    between atoms: _26  and  _50
REMARK   13  A    between atoms: _27  and  _29
REMARK   14  A    between atoms: _29  and  _30
REMARK   15  A    between atoms: _33  and  _35
REMARK   16  A    between atoms: _35  and  _36
REMARK   17  A    between atoms: _35  and  _38
REMARK   18  A    between atoms: _38  and  _39
REMARK   19  A    between atoms: _44  and  _46
REMARK   20  A    between atoms: _46  and  _47
REMARK   21  A    between atoms: _46  and  _49
REMARK   22  A    between atoms: _49  and  _50
REMARK   23  A    between atoms: _51  and  _53
REMARK   24  A    between atoms: _53  and  _54
REMARK   25  A    between atoms: _53  and  _56
REMARK   26  A    between atoms: _56  and  _57
REMARK   27  A    between atoms: _60  and  _62
REMARK   28  A    between atoms: _62  and  _63
REMARK   29  A    between atoms: _62  and  _65
REMARK   30  A    between atoms: _65  and  _66
REMARK   31  A    between atoms: _69  and  _71
REMARK   32  A    between atoms: _71  and  _72
REMARK   33  A    between atoms: _71  and  _74
REMARK   34  A    between atoms: _74  and  _75
REMARK   35  A    between atoms: _78  and  _80
REMARK   36  A    between atoms: _80  and  _81
REMARK   37  A    between atoms: _80  and  _83
REMARK   38  A    between atoms: _83  and  _84
REMARK   39  A    between atoms: _89  and  _91
REMARK   40  A    between atoms: _91  and  _92
REMARK   41  A    between atoms: _91  and  _94
REMARK   42  A    between atoms: _94  and  _95
REMARK   43  A    between atoms: _100  and  _101
REMARK   44  A    between atoms: _103  and  _105
REMARK   45  A    between atoms: _105  and  _106
REMARK   46  A    between atoms: _105  and  _108
REMARK   47  A    between atoms: _108  and  _109
REMARK   48  A    between atoms: _114  and  _115
REMARK   49  A    between atoms: _117  and  _119
REMARK   50  A    between atoms: _119  and  _120
REMARK   51  A    between atoms: _123  and  _125
REMARK   52  A    between atoms: _125  and  _126
REMARK   53  A    between atoms: _125  and  _128
REMARK   54  A    between atoms: _128  and  _129
REMARK   55  A    between atoms: _129  and  _130
REMARK   56  A    between atoms: _130  and  _131
REMARK   57  A    between atoms: _131  and  _132
REMARK   58  A    between atoms: _136  and  _138
REMARK   59  A    between atoms: _138  and  _139
REMARK   60  A    between atoms: _138  and  _141
REMARK   61  A    between atoms: _141  and  _142
REMARK   62  A    between atoms: _145  and  _147
REMARK   63  A    between atoms: _147  and  _148
REMARK   64  A    between atoms: _147  and  _150
REMARK   65  A    between atoms: _150  and  _151
REMARK   66  A    between atoms: _153  and  _155
REMARK   67  A    between atoms: _155  and  _156
REMARK   68  A    between atoms: _155  and  _158
REMARK   69  A    between atoms: _158  and  _159
REMARK   70  A    between atoms: _159  and  _269
REMARK   71  A    between atoms: _160  and  _162
REMARK   72  A    between atoms: _162  and  _163
REMARK   73  A    between atoms: _162  and  _165
REMARK   74  A    between atoms: _165  and  _166
REMARK   75  A    between atoms: _166  and  _167
REMARK   76  A    between atoms: _172  and  _174
REMARK   77  A    between atoms: _174  and  _175
REMARK   78  A    between atoms: _177  and  _179
REMARK   79  A    between atoms: _179  and  _180
REMARK   80  A    between atoms: _179  and  _182
REMARK   81  A    between atoms: _182  and  _183
REMARK   82  A    between atoms: _186  and  _188
REMARK   83  A    between atoms: _188  and  _189
REMARK   84  A    between atoms: _188  and  _191
REMARK   85  A    between atoms: _191  and  _192
REMARK   86  A    between atoms: _194  and  _196
REMARK   87  A    between atoms: _196  and  _197
REMARK   88  A    between atoms: _199  and  _201
REMARK   89  A    between atoms: _201  and  _202
REMARK   90  A    between atoms: _204  and  _206
REMARK   91  A    between atoms: _206  and  _207
REMARK   92  A    between atoms: _206  and  _209
REMARK   93  A    between atoms: _209  and  _210
REMARK   94  A    between atoms: _213  and  _215
REMARK   95  A    between atoms: _215  and  _216
REMARK   96  A    between atoms: _215  and  _218
REMARK   97  A    between atoms: _221  and  _223
REMARK   98  A    between atoms: _223  and  _224
REMARK   99  A    between atoms: _223  and  _226
REMARK  100  A    between atoms: _226  and  _227
REMARK  101  A    between atoms: _229  and  _231
REMARK  102  A    between atoms: _231  and  _232
REMARK  103  A    between atoms: _231  and  _234
REMARK  104  A    between atoms: _234  and  _235
REMARK  105  A    between atoms: _245  and  _247
REMARK  106  A    between atoms: _247  and  _248
REMARK  107  A    between atoms: _250  and  _252
REMARK  108  A    between atoms: _252  and  _253
REMARK  109  A    between atoms: _252  and  _255
REMARK  110  A    between atoms: _255  and  _256
REMARK  111  A    between atoms: _258  and  _260
REMARK  112  A    between atoms: _260  and  _261
REMARK  113  A    between atoms: _263  and  _265
REMARK  114  A    between atoms: _265  and  _266
REMARK  115  A    between atoms: _265  and  _268
REMARK  116  A    between atoms: _268  and  _269
REMARK  117  A    between atoms: _270  and  _272
REMARK  118  A    between atoms: _272  and  _273
REMARK  119  A    between atoms: _276  and  _278
REMARK  120  A    between atoms: _278  and  _279
REMARK  121  A    between atoms: _278  and  _281
REMARK  122  A    between atoms: _281  and  _282
REMARK  123  A    between atoms: _282  and  _283
REMARK  124  A    between atoms: _288  and  _290
REMARK  125  A    between atoms: _290  and  _291
REMARK  126  A    between atoms: _290  and  _293
REMARK  127  A    between atoms: _293  and  _294
REMARK  128  A    between atoms: _294  and  _295
REMARK  129  A    between atoms: _295  and  _296
REMARK  130  A    between atoms: _296  and  _297
REMARK  131  A    between atoms: _302  and  _303
REMARK  132  A    between atoms: _308  and  _310
REMARK  133  A    between atoms: _310  and  _311
REMARK  134  A    between atoms: _313  and  _315
REMARK  135  A    between atoms: _315  and  _316
REMARK  136  A    between atoms: _315  and  _318
REMARK  137  A    between atoms: _321  and  _323
REMARK  138  A    between atoms: _323  and  _324
REMARK  139  A    between atoms: _323  and  _326
REMARK  140  A    between atoms: _326  and  _327
REMARK  141  A    between atoms: _332  and  _333
REMARK  142  A    between atoms: _335  and  _337
REMARK  143  A    between atoms: _337  and  _338
REMARK  144  A    between atoms: _337  and  _340
REMARK  145  A    between atoms: _340  and  _341
REMARK                            x       y       z     vdW  Elec       q    Type
REMARK                         _______ _______ _______ _____ _____    ______ ____
ROOT
ATOM      1  O   HOH     1      31.160  17.672   6.778  0.00  0.00    +0.000 OA
ENDROOT
TORSDOF 0
REMARK  Name = ../refined-set-2016/3nkk/3nkk_pocket.pdb
REMARK  145 active torsions:
REMARK  status: ('A' for Active; 'I' for Inactive)
REMARK    1  A    between atoms: _1  and  _5
REMARK    2  A    between atoms: _5  and  _6
REMARK    3  A    between atoms: _5  and  _8
REMARK    4  A    between atoms: _8  and  _9
REMARK    5  A    between atoms: _12  and  _14
REMARK    6  A    between atoms: _14  and  _15
REMARK    7  A    between atoms: _14  and  _17
REMARK    8  A    between atoms: _20  and  _22
REMARK    9  A    between atoms: _22  and  _23
REMARK   10  A    between atoms: _22  and  _25
REMARK   11  A    between atoms: _25  and  _26
REMARK   12  A    between atoms: _26  and  _50
REMARK   13  A    between atoms: _27  and  _29
REMARK   14  A    between atoms: _29  and  _30
REMARK   15  A    between atoms: _33  and  _35
REMARK   16  A    between atoms: _35  and  _36
REMARK   17  A    between atoms: _35  and  _38
REMARK   18  A    between atoms: _38  and  _39
REMARK   19  A    between atoms: _44  and  _46
REMARK   20  A    between atoms: _46  and  _47
REMARK   21  A    between atoms: _46  and  _49
REMARK   22  A    between atoms: _49  and  _50
REMARK   23  A    between atoms: _51  and  _53
REMARK   24  A    between atoms: _53  and  _54
REMARK   25  A    between atoms: _53  and  _56
REMARK   26  A    between atoms: _56  and  _57
REMARK   27  A    between atoms: _60  and  _62
REMARK   28  A    between atoms: _62  and  _63
REMARK   29  A    between atoms: _62  and  _65
REMARK   30  A    between atoms: _65  and  _66
REMARK   31  A    between atoms: _69  and  _71
REMARK   32  A    between atoms: _71  and  _72
REMARK   33  A    between atoms: _71  and  _74
REMARK   34  A    between atoms: _74  and  _75
REMARK   35  A    between atoms: _78  and  _80
REMARK   36  A    between atoms: _80  and  _81
REMARK   37  A    between atoms: _80  and  _83
REMARK   38  A    between atoms: _83  and  _84
REMARK   39  A    between atoms: _89  and  _91
REMARK   40  A    between atoms: _91  and  _92
REMARK   41  A    between atoms: _91  and  _94
REMARK   42  A    between atoms: _94  and  _95
REMARK   43  A    between atoms: _100  and  _101
REMARK   44  A    between atoms: _103  and  _105
REMARK   45  A    between atoms: _105  and  _106
REMARK   46  A    between atoms: _105  and  _108
REMARK   47  A    between atoms: _108  and  _109
REMARK   48  A    between atoms: _114  and  _115
REMARK   49  A    between atoms: _117  and  _119
REMARK   50  A    between atoms: _119  and  _120
REMARK   51  A    between atoms: _123  and  _125
REMARK   52  A    between atoms: _125  and  _126
REMARK   53  A    between atoms: _125  and  _128
REMARK   54  A    between atoms: _128  and  _129
REMARK   55  A    between atoms: _129  and  _130
REMARK   56  A    between atoms: _130  and  _131
REMARK   57  A    between atoms: _131  and  _132
REMARK   58  A    between atoms: _136  and  _138
REMARK   59  A    between atoms: _138  and  _139
REMARK   60  A    between atoms: _138  and  _141
REMARK   61  A    between atoms: _141  and  _142
REMARK   62  A    between atoms: _145  and  _147
REMARK   63  A    between atoms: _147  and  _148
REMARK   64  A    between atoms: _147  and  _150
REMARK   65  A    between atoms: _150  and  _151
REMARK   66  A    between atoms: _153  and  _155
REMARK   67  A    between atoms: _155  and  _156
REMARK   68  A    between atoms: _155  and  _158
REMARK   69  A    between atoms: _158  and  _159
REMARK   70  A    between atoms: _159  and  _269
REMARK   71  A    between atoms: _160  and  _162
REMARK   72  A    between atoms: _162  and  _163
REMARK   73  A    between atoms: _162  and  _165
REMARK   74  A    between atoms: _165  and  _166
REMARK   75  A    between atoms: _166  and  _167
REMARK   76  A    between atoms: _172  and  _174
REMARK   77  A    between atoms: _174  and  _175
REMARK   78  A    between atoms: _177  and  _179
REMARK   79  A    between atoms: _179  and  _180
REMARK   80  A    between atoms: _179  and  _182
REMARK   81  A    between atoms: _182  and  _183
REMARK   82  A    between atoms: _186  and  _188
REMARK   83  A    between atoms: _188  and  _189
REMARK   84  A    between atoms: _188  and  _191
REMARK   85  A    between atoms: _191  and  _192
REMARK   86  A    between atoms: _194  and  _196
REMARK   87  A    between atoms: _196  and  _197
REMARK   88  A    between atoms: _199  and  _201
REMARK   89  A    between atoms: _201  and  _202
REMARK   90  A    between atoms: _204  and  _206
REMARK   91  A    between atoms: _206  and  _207
REMARK   92  A    between atoms: _206  and  _209
REMARK   93  A    between atoms: _209  and  _210
REMARK   94  A    between atoms: _213  and  _215
REMARK   95  A    between atoms: _215  and  _216
REMARK   96  A    between atoms: _215  and  _218
REMARK   97  A    between atoms: _221  and  _223
REMARK   98  A    between atoms: _223  and  _224
REMARK   99  A    between atoms: _223  and  _226
REMARK  100  A    between atoms: _226  and  _227
REMARK  101  A    between atoms: _229  and  _231
REMARK  102  A    between atoms: _231  and  _232
REMARK  103  A    between atoms: _231  and  _234
REMARK  104  A    between atoms: _234  and  _235
REMARK  105  A    between atoms: _245  and  _247
REMARK  106  A    between atoms: _247  and  _248
REMARK  107  A    between atoms: _250  and  _252
REMARK  108  A    between atoms: _252  and  _253
REMARK  109  A    between atoms: _252  and  _255
REMARK  110  A    between atoms: _255  and  _256
REMARK  111  A    between atoms: _258  and  _260
REMARK  112  A    between atoms: _260  and  _261
REMARK  113  A    between atoms: _263  and  _265
REMARK  114  A    between atoms: _265  and  _266
REMARK  115  A    between atoms: _265  and  _268
REMARK  116  A    between atoms: _268  and  _269
REMARK  117  A    between atoms: _270  and  _272
REMARK  118  A    between atoms: _272  and  _273
REMARK  119  A    between atoms: _276  and  _278
REMARK  120  A    between atoms: _278  and  _279
REMARK  121  A    between atoms: _278  and  _281
REMARK  122  A    between atoms: _281  and  _282
REMARK  123  A    between atoms: _282  and  _283
REMARK  124  A    between atoms: _288  and  _290
REMARK  125  A    between atoms: _290  and  _291
REMARK  126  A    between atoms: _290  and  _293
REMARK  127  A    between atoms: _293  and  _294
REMARK  128  A    between atoms: _294  and  _295
REMARK  129  A    between atoms: _295  and  _296
REMARK  130  A    between atoms: _296  and  _297
REMARK  131  A    between atoms: _302  and  _303
REMARK  132  A    between atoms: _308  and  _310
REMARK  133  A    between atoms: _310  and  _311
REMARK  134  A    between atoms: _313  and  _315
REMARK  135  A    between atoms: _315  and  _316
REMARK  136  A    between atoms: _315  and  _318
REMARK  137  A    between atoms: _321  and  _323
REMARK  138  A    between atoms: _323  and  _324
REMARK  139  A    between atoms: _323  and  _326
REMARK  140  A    between atoms: _326  and  _327
REMARK  141  A    between atoms: _332  and  _333
REMARK  142  A    between atoms: _335  and  _337
REMARK  143  A    between atoms: _337  and  _338
REMARK  144  A    between atoms: _337  and  _340
REMARK  145  A    between atoms: _340  and  _341
REMARK                            x       y       z     vdW  Elec       q    Type
REMARK                         _______ _______ _______ _____ _____    ______ ____
ROOT
ATOM      1  O   HOH     1      30.533  10.121  15.365  0.00  0.00    +0.000 OA
ENDROOT
TORSDOF 0
REMARK  Name = ../refined-set-2016/3nkk/3nkk_pocket.pdb
REMARK  145 active torsions:
REMARK  status: ('A' for Active; 'I' for Inactive)
REMARK    1  A    between atoms: _1  and  _5
REMARK    2  A    between atoms: _5  and  _6
REMARK    3  A    between atoms: _5  and  _8
REMARK    4  A    between atoms: _8  and  _9
REMARK    5  A    between atoms: _12  and  _14
REMARK    6  A    between atoms: _14  and  _15
REMARK    7  A    between atoms: _14  and  _17
REMARK    8  A    between atoms: _20  and  _22
REMARK    9  A    between atoms: _22  and  _23
REMARK   10  A    between atoms: _22  and  _25
REMARK   11  A    between atoms: _25  and  _26
REMARK   12  A    between atoms: _26  and  _50
REMARK   13  A    between atoms: _27  and  _29
REMARK   14  A    between atoms: _29  and  _30
REMARK   15  A    between atoms: _33  and  _35
REMARK   16  A    between atoms: _35  and  _36
REMARK   17  A    between atoms: _35  and  _38
REMARK   18  A    between atoms: _38  and  _39
REMARK   19  A    between atoms: _44  and  _46
REMARK   20  A    between atoms: _46  and  _47
REMARK   21  A    between atoms: _46  and  _49
REMARK   22  A    between atoms: _49  and  _50
REMARK   23  A    between atoms: _51  and  _53
REMARK   24  A    between atoms: _53  and  _54
REMARK   25  A    between atoms: _53  and  _56
REMARK   26  A    between atoms: _56  and  _57
REMARK   27  A    between atoms: _60  and  _62
REMARK   28  A    between atoms: _62  and  _63
REMARK   29  A    between atoms: _62  and  _65
REMARK   30  A    between atoms: _65  and  _66
REMARK   31  A    between atoms: _69  and  _71
REMARK   32  A    between atoms: _71  and  _72
REMARK   33  A    between atoms: _71  and  _74
REMARK   34  A    between atoms: _74  and  _75
REMARK   35  A    between atoms: _78  and  _80
REMARK   36  A    between atoms: _80  and  _81
REMARK   37  A    between atoms: _80  and  _83
REMARK   38  A    between atoms: _83  and  _84
REMARK   39  A    between atoms: _89  and  _91
REMARK   40  A    between atoms: _91  and  _92
REMARK   41  A    between atoms: _91  and  _94
REMARK   42  A    between atoms: _94  and  _95
REMARK   43  A    between atoms: _100  and  _101
REMARK   44  A    between atoms: _103  and  _105
REMARK   45  A    between atoms: _105  and  _106
REMARK   46  A    between atoms: _105  and  _108
REMARK   47  A    between atoms: _108  and  _109
REMARK   48  A    between atoms: _114  and  _115
REMARK   49  A    between atoms: _117  and  _119
REMARK   50  A    between atoms: _119  and  _120
REMARK   51  A    between atoms: _123  and  _125
REMARK   52  A    between atoms: _125  and  _126
REMARK   53  A    between atoms: _125  and  _128
REMARK   54  A    between atoms: _128  and  _129
REMARK   55  A    between atoms: _129  and  _130
REMARK   56  A    between atoms: _130  and  _131
REMARK   57  A    between atoms: _131  and  _132
REMARK   58  A    between atoms: _136  and  _138
REMARK   59  A    between atoms: _138  and  _139
REMARK   60  A    between atoms: _138  and  _141
REMARK   61  A    between atoms: _141  and  _142
REMARK   62  A    between atoms: _145  and  _147
REMARK   63  A    between atoms: _147  and  _148
REMARK   64  A    between atoms: _147  and  _150
REMARK   65  A    between atoms: _150  and  _151
REMARK   66  A    between atoms: _153  and  _155
REMARK   67  A    between atoms: _155  and  _156
REMARK   68  A    between atoms: _155  and  _158
REMARK   69  A    between atoms: _158  and  _159
REMARK   70  A    between atoms: _159  and  _269
REMARK   71  A    between atoms: _160  and  _162
REMARK   72  A    between atoms: _162  and  _163
REMARK   73  A    between atoms: _162  and  _165
REMARK   74  A    between atoms: _165  and  _166
REMARK   75  A    between atoms: _166  and  _167
REMARK   76  A    between atoms: _172  and  _174
REMARK   77  A    between atoms: _174  and  _175
REMARK   78  A    between atoms: _177  and  _179
REMARK   79  A    between atoms: _179  and  _180
REMARK   80  A    between atoms: _179  and  _182
REMARK   81  A    between atoms: _182  and  _183
REMARK   82  A    between atoms: _186  and  _188
REMARK   83  A    between atoms: _188  and  _189
REMARK   84  A    between atoms: _188  and  _191
REMARK   85  A    between atoms: _191  and  _192
REMARK   86  A    between atoms: _194  and  _196
REMARK   87  A    between atoms: _196  and  _197
REMARK   88  A    between atoms: _199  and  _201
REMARK   89  A    between atoms: _201  and  _202
REMARK   90  A    between atoms: _204  and  _206
REMARK   91  A    between atoms: _206  and  _207
REMARK   92  A    between atoms: _206  and  _209
REMARK   93  A    between atoms: _209  and  _210
REMARK   94  A    between atoms: _213  and  _215
REMARK   95  A    between atoms: _215  and  _216
REMARK   96  A    between atoms: _215  and  _218
REMARK   97  A    between atoms: _221  and  _223
REMARK   98  A    between atoms: _223  and  _224
REMARK   99  A    between atoms: _223  and  _226
REMARK  100  A    between atoms: _226  and  _227
REMARK  101  A    between atoms: _229  and  _231
REMARK  102  A    between atoms: _231  and  _232
REMARK  103  A    between atoms: _231  and  _234
REMARK  104  A    between atoms: _234  and  _235
REMARK  105  A    between atoms: _245  and  _247
REMARK  106  A    between atoms: _247  and  _248
REMARK  107  A    between atoms: _250  and  _252
REMARK  108  A    between atoms: _252  and  _253
REMARK  109  A    between atoms: _252  and  _255
REMARK  110  A    between atoms: _255  and  _256
REMARK  111  A    between atoms: _258  and  _260
REMARK  112  A    between atoms: _260  and  _261
REMARK  113  A    between atoms: _263  and  _265
REMARK  114  A    between atoms: _265  and  _266
REMARK  115  A    between atoms: _265  and  _268
REMARK  116  A    between atoms: _268  and  _269
REMARK  117  A    between atoms: _270  and  _272
REMARK  118  A    between atoms: _272  and  _273
REMARK  119  A    between atoms: _276  and  _278
REMARK  120  A    between atoms: _278  and  _279
REMARK  121  A    between atoms: _278  and  _281
REMARK  122  A    between atoms: _281  and  _282
REMARK  123  A    between atoms: _282  and  _283
REMARK  124  A    between atoms: _288  and  _290
REMARK  125  A    between atoms: _290  and  _291
REMARK  126  A    between atoms: _290  and  _293
REMARK  127  A    between atoms: _293  and  _294
REMARK  128  A    between atoms: _294  and  _295
REMARK  129  A    between atoms: _295  and  _296
REMARK  130  A    between atoms: _296  and  _297
REMARK  131  A    between atoms: _302  and  _303
REMARK  132  A    between atoms: _308  and  _310
REMARK  133  A    between atoms: _310  and  _311
REMARK  134  A    between atoms: _313  and  _315
REMARK  135  A    between atoms: _315  and  _316
REMARK  136  A    between atoms: _315  and  _318
REMARK  137  A    between atoms: _321  and  _323
REMARK  138  A    between atoms: _323  and  _324
REMARK  139  A    between atoms: _323  and  _326
REMARK  140  A    between atoms: _326  and  _327
REMARK  141  A    between atoms: _332  and  _333
REMARK  142  A    between atoms: _335  and  _337
REMARK  143  A    between atoms: _337  and  _338
REMARK  144  A    between atoms: _337  and  _340
REMARK  145  A    between atoms: _340  and  _341
REMARK                            x       y       z     vdW  Elec       q    Type
REMARK                         _______ _______ _______ _____ _____    ______ ____
ROOT
ATOM      1  O   HOH     1      25.816   9.589  14.754  0.00  0.00    +0.000 OA
ENDROOT
TORSDOF 0
REMARK  Name = ../refined-set-2016/3nkk/3nkk_pocket.pdb
REMARK  145 active torsions:
REMARK  status: ('A' for Active; 'I' for Inactive)
REMARK    1  A    between atoms: _1  and  _5
REMARK    2  A    between atoms: _5  and  _6
REMARK    3  A    between atoms: _5  and  _8
REMARK    4  A    between atoms: _8  and  _9
REMARK    5  A    between atoms: _12  and  _14
REMARK    6  A    between atoms: _14  and  _15
REMARK    7  A    between atoms: _14  and  _17
REMARK    8  A    between atoms: _20  and  _22
REMARK    9  A    between atoms: _22  and  _23
REMARK   10  A    between atoms: _22  and  _25
REMARK   11  A    between atoms: _25  and  _26
REMARK   12  A    between atoms: _26  and  _50
REMARK   13  A    between atoms: _27  and  _29
REMARK   14  A    between atoms: _29  and  _30
REMARK   15  A    between atoms: _33  and  _35
REMARK   16  A    between atoms: _35  and  _36
REMARK   17  A    between atoms: _35  and  _38
REMARK   18  A    between atoms: _38  and  _39
REMARK   19  A    between atoms: _44  and  _46
REMARK   20  A    between atoms: _46  and  _47
REMARK   21  A    between atoms: _46  and  _49
REMARK   22  A    between atoms: _49  and  _50
REMARK   23  A    between atoms: _51  and  _53
REMARK   24  A    between atoms: _53  and  _54
REMARK   25  A    between atoms: _53  and  _56
REMARK   26  A    between atoms: _56  and  _57
REMARK   27  A    between atoms: _60  and  _62
REMARK   28  A    between atoms: _62  and  _63
REMARK   29  A    between atoms: _62  and  _65
REMARK   30  A    between atoms: _65  and  _66
REMARK   31  A    between atoms: _69  and  _71
REMARK   32  A    between atoms: _71  and  _72
REMARK   33  A    between atoms: _71  and  _74
REMARK   34  A    between atoms: _74  and  _75
REMARK   35  A    between atoms: _78  and  _80
REMARK   36  A    between atoms: _80  and  _81
REMARK   37  A    between atoms: _80  and  _83
REMARK   38  A    between atoms: _83  and  _84
REMARK   39  A    between atoms: _89  and  _91
REMARK   40  A    between atoms: _91  and  _92
REMARK   41  A    between atoms: _91  and  _94
REMARK   42  A    between atoms: _94  and  _95
REMARK   43  A    between atoms: _100  and  _101
REMARK   44  A    between atoms: _103  and  _105
REMARK   45  A    between atoms: _105  and  _106
REMARK   46  A    between atoms: _105  and  _108
REMARK   47  A    between atoms: _108  and  _109
REMARK   48  A    between atoms: _114  and  _115
REMARK   49  A    between atoms: _117  and  _119
REMARK   50  A    between atoms: _119  and  _120
REMARK   51  A    between atoms: _123  and  _125
REMARK   52  A    between atoms: _125  and  _126
REMARK   53  A    between atoms: _125  and  _128
REMARK   54  A    between atoms: _128  and  _129
REMARK   55  A    between atoms: _129  and  _130
REMARK   56  A    between atoms: _130  and  _131
REMARK   57  A    between atoms: _131  and  _132
REMARK   58  A    between atoms: _136  and  _138
REMARK   59  A    between atoms: _138  and  _139
REMARK   60  A    between atoms: _138  and  _141
REMARK   61  A    between atoms: _141  and  _142
REMARK   62  A    between atoms: _145  and  _147
REMARK   63  A    between atoms: _147  and  _148
REMARK   64  A    between atoms: _147  and  _150
REMARK   65  A    between atoms: _150  and  _151
REMARK   66  A    between atoms: _153  and  _155
REMARK   67  A    between atoms: _155  and  _156
REMARK   68  A    between atoms: _155  and  _158
REMARK   69  A    between atoms: _158  and  _159
REMARK   70  A    between atoms: _159  and  _269
REMARK   71  A    between atoms: _160  and  _162
REMARK   72  A    between atoms: _162  and  _163
REMARK   73  A    between atoms: _162  and  _165
REMARK   74  A    between atoms: _165  and  _166
REMARK   75  A    between atoms: _166  and  _167
REMARK   76  A    between atoms: _172  and  _174
REMARK   77  A    between atoms: _174  and  _175
REMARK   78  A    between atoms: _177  and  _179
REMARK   79  A    between atoms: _179  and  _180
REMARK   80  A    between atoms: _179  and  _182
REMARK   81  A    between atoms: _182  and  _183
REMARK   82  A    between atoms: _186  and  _188
REMARK   83  A    between atoms: _188  and  _189
REMARK   84  A    between atoms: _188  and  _191
REMARK   85  A    between atoms: _191  and  _192
REMARK   86  A    between atoms: _194  and  _196
REMARK   87  A    between atoms: _196  and  _197
REMARK   88  A    between atoms: _199  and  _201
REMARK   89  A    between atoms: _201  and  _202
REMARK   90  A    between atoms: _204  and  _206
REMARK   91  A    between atoms: _206  and  _207
REMARK   92  A    between atoms: _206  and  _209
REMARK   93  A    between atoms: _209  and  _210
REMARK   94  A    between atoms: _213  and  _215
REMARK   95  A    between atoms: _215  and  _216
REMARK   96  A    between atoms: _215  and  _218
REMARK   97  A    between atoms: _221  and  _223
REMARK   98  A    between atoms: _223  and  _224
REMARK   99  A    between atoms: _223  and  _226
REMARK  100  A    between atoms: _226  and  _227
REMARK  101  A    between atoms: _229  and  _231
REMARK  102  A    between atoms: _231  and  _232
REMARK  103  A    between atoms: _231  and  _234
REMARK  104  A    between atoms: _234  and  _235
REMARK  105  A    between atoms: _245  and  _247
REMARK  106  A    between atoms: _247  and  _248
REMARK  107  A    between atoms: _250  and  _252
REMARK  108  A    between atoms: _252  and  _253
REMARK  109  A    between atoms: _252  and  _255
REMARK  110  A    between atoms: _255  and  _256
REMARK  111  A    between atoms: _258  and  _260
REMARK  112  A    between atoms: _260  and  _261
REMARK  113  A    between atoms: _263  and  _265
REMARK  114  A    between atoms: _265  and  _266
REMARK  115  A    between atoms: _265  and  _268
REMARK  116  A    between atoms: _268  and  _269
REMARK  117  A    between atoms: _270  and  _272
REMARK  118  A    between atoms: _272  and  _273
REMARK  119  A    between atoms: _276  and  _278
REMARK  120  A    between atoms: _278  and  _279
REMARK  121  A    between atoms: _278  and  _281
REMARK  122  A    between atoms: _281  and  _282
REMARK  123  A    between atoms: _282  and  _283
REMARK  124  A    between atoms: _288  and  _290
REMARK  125  A    between atoms: _290  and  _291
REMARK  126  A    between atoms: _290  and  _293
REMARK  127  A    between atoms: _293  and  _294
REMARK  128  A    between atoms: _294  and  _295
REMARK  129  A    between atoms: _295  and  _296
REMARK  130  A    between atoms: _296  and  _297
REMARK  131  A    between atoms: _302  and  _303
REMARK  132  A    between atoms: _308  and  _310
REMARK  133  A    between atoms: _310  and  _311
REMARK  134  A    between atoms: _313  and  _315
REMARK  135  A    between atoms: _315  and  _316
REMARK  136  A    between atoms: _315  and  _318
REMARK  137  A    between atoms: _321  and  _323
REMARK  138  A    between atoms: _323  and  _324
REMARK  139  A    between atoms: _323  and  _326
REMARK  140  A    between atoms: _326  and  _327
REMARK  141  A    between atoms: _332  and  _333
REMARK  142  A    between atoms: _335  and  _337
REMARK  143  A    between atoms: _337  and  _338
REMARK  144  A    between atoms: _337  and  _340
REMARK  145  A    between atoms: _340  and  _341
REMARK                            x       y       z     vdW  Elec       q    Type
REMARK                         _______ _______ _______ _____ _____    ______ ____
ROOT
ATOM      1  O   HOH     1      29.503  11.929  25.946  0.00  0.00    +0.000 OA
ENDROOT
TORSDOF 0
REMARK  Name = ../refined-set-2016/3nkk/3nkk_pocket.pdb
REMARK  145 active torsions:
REMARK  status: ('A' for Active; 'I' for Inactive)
REMARK    1  A    between atoms: _1  and  _5
REMARK    2  A    between atoms: _5  and  _6
REMARK    3  A    between atoms: _5  and  _8
REMARK    4  A    between atoms: _8  and  _9
REMARK    5  A    between atoms: _12  and  _14
REMARK    6  A    between atoms: _14  and  _15
REMARK    7  A    between atoms: _14  and  _17
REMARK    8  A    between atoms: _20  and  _22
REMARK    9  A    between atoms: _22  and  _23
REMARK   10  A    between atoms: _22  and  _25
REMARK   11  A    between atoms: _25  and  _26
REMARK   12  A    between atoms: _26  and  _50
REMARK   13  A    between atoms: _27  and  _29
REMARK   14  A    between atoms: _29  and  _30
REMARK   15  A    between atoms: _33  and  _35
REMARK   16  A    between atoms: _35  and  _36
REMARK   17  A    between atoms: _35  and  _38
REMARK   18  A    between atoms: _38  and  _39
REMARK   19  A    between atoms: _44  and  _46
REMARK   20  A    between atoms: _46  and  _47
REMARK   21  A    between atoms: _46  and  _49
REMARK   22  A    between atoms: _49  and  _50
REMARK   23  A    between atoms: _51  and  _53
REMARK   24  A    between atoms: _53  and  _54
REMARK   25  A    between atoms: _53  and  _56
REMARK   26  A    between atoms: _56  and  _57
REMARK   27  A    between atoms: _60  and  _62
REMARK   28  A    between atoms: _62  and  _63
REMARK   29  A    between atoms: _62  and  _65
REMARK   30  A    between atoms: _65  and  _66
REMARK   31  A    between atoms: _69  and  _71
REMARK   32  A    between atoms: _71  and  _72
REMARK   33  A    between atoms: _71  and  _74
REMARK   34  A    between atoms: _74  and  _75
REMARK   35  A    between atoms: _78  and  _80
REMARK   36  A    between atoms: _80  and  _81
REMARK   37  A    between atoms: _80  and  _83
REMARK   38  A    between atoms: _83  and  _84
REMARK   39  A    between atoms: _89  and  _91
REMARK   40  A    between atoms: _91  and  _92
REMARK   41  A    between atoms: _91  and  _94
REMARK   42  A    between atoms: _94  and  _95
REMARK   43  A    between atoms: _100  and  _101
REMARK   44  A    between atoms: _103  and  _105
REMARK   45  A    between atoms: _105  and  _106
REMARK   46  A    between atoms: _105  and  _108
REMARK   47  A    between atoms: _108  and  _109
REMARK   48  A    between atoms: _114  and  _115
REMARK   49  A    between atoms: _117  and  _119
REMARK   50  A    between atoms: _119  and  _120
REMARK   51  A    between atoms: _123  and  _125
REMARK   52  A    between atoms: _125  and  _126
REMARK   53  A    between atoms: _125  and  _128
REMARK   54  A    between atoms: _128  and  _129
REMARK   55  A    between atoms: _129  and  _130
REMARK   56  A    between atoms: _130  and  _131
REMARK   57  A    between atoms: _131  and  _132
REMARK   58  A    between atoms: _136  and  _138
REMARK   59  A    between atoms: _138  and  _139
REMARK   60  A    between atoms: _138  and  _141
REMARK   61  A    between atoms: _141  and  _142
REMARK   62  A    between atoms: _145  and  _147
REMARK   63  A    between atoms: _147  and  _148
REMARK   64  A    between atoms: _147  and  _150
REMARK   65  A    between atoms: _150  and  _151
REMARK   66  A    between atoms: _153  and  _155
REMARK   67  A    between atoms: _155  and  _156
REMARK   68  A    between atoms: _155  and  _158
REMARK   69  A    between atoms: _158  and  _159
REMARK   70  A    between atoms: _159  and  _269
REMARK   71  A    between atoms: _160  and  _162
REMARK   72  A    between atoms: _162  and  _163
REMARK   73  A    between atoms: _162  and  _165
REMARK   74  A    between atoms: _165  and  _166
REMARK   75  A    between atoms: _166  and  _167
REMARK   76  A    between atoms: _172  and  _174
REMARK   77  A    between atoms: _174  and  _175
REMARK   78  A    between atoms: _177  and  _179
REMARK   79  A    between atoms: _179  and  _180
REMARK   80  A    between atoms: _179  and  _182
REMARK   81  A    between atoms: _182  and  _183
REMARK   82  A    between atoms: _186  and  _188
REMARK   83  A    between atoms: _188  and  _189
REMARK   84  A    between atoms: _188  and  _191
REMARK   85  A    between atoms: _191  and  _192
REMARK   86  A    between atoms: _194  and  _196
REMARK   87  A    between atoms: _196  and  _197
REMARK   88  A    between atoms: _199  and  _201
REMARK   89  A    between atoms: _201  and  _202
REMARK   90  A    between atoms: _204  and  _206
REMARK   91  A    between atoms: _206  and  _207
REMARK   92  A    between atoms: _206  and  _209
REMARK   93  A    between atoms: _209  and  _210
REMARK   94  A    between atoms: _213  and  _215
REMARK   95  A    between atoms: _215  and  _216
REMARK   96  A    between atoms: _215  and  _218
REMARK   97  A    between atoms: _221  and  _223
REMARK   98  A    between atoms: _223  and  _224
REMARK   99  A    between atoms: _223  and  _226
REMARK  100  A    between atoms: _226  and  _227
REMARK  101  A    between atoms: _229  and  _231
REMARK  102  A    between atoms: _231  and  _232
REMARK  103  A    between atoms: _231  and  _234
REMARK  104  A    between atoms: _234  and  _235
REMARK  105  A    between atoms: _245  and  _247
REMARK  106  A    between atoms: _247  and  _248
REMARK  107  A    between atoms: _250  and  _252
REMARK  108  A    between atoms: _252  and  _253
REMARK  109  A    between atoms: _252  and  _255
REMARK  110  A    between atoms: _255  and  _256
REMARK  111  A    between atoms: _258  and  _260
REMARK  112  A    between atoms: _260  and  _261
REMARK  113  A    between atoms: _263  and  _265
REMARK  114  A    between atoms: _265  and  _266
REMARK  115  A    between atoms: _265  and  _268
REMARK  116  A    between atoms: _268  and  _269
REMARK  117  A    between atoms: _270  and  _272
REMARK  118  A    between atoms: _272  and  _273
REMARK  119  A    between atoms: _276  and  _278
REMARK  120  A    between atoms: _278  and  _279
REMARK  121  A    between atoms: _278  and  _281
REMARK  122  A    between atoms: _281  and  _282
REMARK  123  A    between atoms: _282  and  _283
REMARK  124  A    between atoms: _288  and  _290
REMARK  125  A    between atoms: _290  and  _291
REMARK  126  A    between atoms: _290  and  _293
REMARK  127  A    between atoms: _293  and  _294
REMARK  128  A    between atoms: _294  and  _295
REMARK  129  A    between atoms: _295  and  _296
REMARK  130  A    between atoms: _296  and  _297
REMARK  131  A    between atoms: _302  and  _303
REMARK  132  A    between atoms: _308  and  _310
REMARK  133  A    between atoms: _310  and  _311
REMARK  134  A    between atoms: _313  and  _315
REMARK  135  A    between atoms: _315  and  _316
REMARK  136  A    between atoms: _315  and  _318
REMARK  137  A    between atoms: _321  and  _323
REMARK  138  A    between atoms: _323  and  _324
REMARK  139  A    between atoms: _323  and  _326
REMARK  140  A    between atoms: _326  and  _327
REMARK  141  A    between atoms: _332  and  _333
REMARK  142  A    between atoms: _335  and  _337
REMARK  143  A    between atoms: _337  and  _338
REMARK  144  A    between atoms: _337  and  _340
REMARK  145  A    between atoms: _340  and  _341
REMARK                            x       y       z     vdW  Elec       q    Type
REMARK                         _______ _______ _______ _____ _____    ______ ____
ROOT
ATOM      1  O   HOH     1      35.541  10.744  18.913  0.00  0.00    +0.000 OA
ENDROOT
TORSDOF 0
REMARK  Name = ../refined-set-2016/3nkk/3nkk_pocket.pdb
REMARK  145 active torsions:
REMARK  status: ('A' for Active; 'I' for Inactive)
REMARK    1  A    between atoms: _1  and  _5
REMARK    2  A    between atoms: _5  and  _6
REMARK    3  A    between atoms: _5  and  _8
REMARK    4  A    between atoms: _8  and  _9
REMARK    5  A    between atoms: _12  and  _14
REMARK    6  A    between atoms: _14  and  _15
REMARK    7  A    between atoms: _14  and  _17
REMARK    8  A    between atoms: _20  and  _22
REMARK    9  A    between atoms: _22  and  _23
REMARK   10  A    between atoms: _22  and  _25
REMARK   11  A    between atoms: _25  and  _26
REMARK   12  A    between atoms: _26  and  _50
REMARK   13  A    between atoms: _27  and  _29
REMARK   14  A    between atoms: _29  and  _30
REMARK   15  A    between atoms: _33  and  _35
REMARK   16  A    between atoms: _35  and  _36
REMARK   17  A    between atoms: _35  and  _38
REMARK   18  A    between atoms: _38  and  _39
REMARK   19  A    between atoms: _44  and  _46
REMARK   20  A    between atoms: _46  and  _47
REMARK   21  A    between atoms: _46  and  _49
REMARK   22  A    between atoms: _49  and  _50
REMARK   23  A    between atoms: _51  and  _53
REMARK   24  A    between atoms: _53  and  _54
REMARK   25  A    between atoms: _53  and  _56
REMARK   26  A    between atoms: _56  and  _57
REMARK   27  A    between atoms: _60  and  _62
REMARK   28  A    between atoms: _62  and  _63
REMARK   29  A    between atoms: _62  and  _65
REMARK   30  A    between atoms: _65  and  _66
REMARK   31  A    between atoms: _69  and  _71
REMARK   32  A    between atoms: _71  and  _72
REMARK   33  A    between atoms: _71  and  _74
REMARK   34  A    between atoms: _74  and  _75
REMARK   35  A    between atoms: _78  and  _80
REMARK   36  A    between atoms: _80  and  _81
REMARK   37  A    between atoms: _80  and  _83
REMARK   38  A    between atoms: _83  and  _84
REMARK   39  A    between atoms: _89  and  _91
REMARK   40  A    between atoms: _91  and  _92
REMARK   41  A    between atoms: _91  and  _94
REMARK   42  A    between atoms: _94  and  _95
REMARK   43  A    between atoms: _100  and  _101
REMARK   44  A    between atoms: _103  and  _105
REMARK   45  A    between atoms: _105  and  _106
REMARK   46  A    between atoms: _105  and  _108
REMARK   47  A    between atoms: _108  and  _109
REMARK   48  A    between atoms: _114  and  _115
REMARK   49  A    between atoms: _117  and  _119
REMARK   50  A    between atoms: _119  and  _120
REMARK   51  A    between atoms: _123  and  _125
REMARK   52  A    between atoms: _125  and  _126
REMARK   53  A    between atoms: _125  and  _128
REMARK   54  A    between atoms: _128  and  _129
REMARK   55  A    between atoms: _129  and  _130
REMARK   56  A    between atoms: _130  and  _131
REMARK   57  A    between atoms: _131  and  _132
REMARK   58  A    between atoms: _136  and  _138
REMARK   59  A    between atoms: _138  and  _139
REMARK   60  A    between atoms: _138  and  _141
REMARK   61  A    between atoms: _141  and  _142
REMARK   62  A    between atoms: _145  and  _147
REMARK   63  A    between atoms: _147  and  _148
REMARK   64  A    between atoms: _147  and  _150
REMARK   65  A    between atoms: _150  and  _151
REMARK   66  A    between atoms: _153  and  _155
REMARK   67  A    between atoms: _155  and  _156
REMARK   68  A    between atoms: _155  and  _158
REMARK   69  A    between atoms: _158  and  _159
REMARK   70  A    between atoms: _159  and  _269
REMARK   71  A    between atoms: _160  and  _162
REMARK   72  A    between atoms: _162  and  _163
REMARK   73  A    between atoms: _162  and  _165
REMARK   74  A    between atoms: _165  and  _166
REMARK   75  A    between atoms: _166  and  _167
REMARK   76  A    between atoms: _172  and  _174
REMARK   77  A    between atoms: _174  and  _175
REMARK   78  A    between atoms: _177  and  _179
REMARK   79  A    between atoms: _179  and  _180
REMARK   80  A    between atoms: _179  and  _182
REMARK   81  A    between atoms: _182  and  _183
REMARK   82  A    between atoms: _186  and  _188
REMARK   83  A    between atoms: _188  and  _189
REMARK   84  A    between atoms: _188  and  _191
REMARK   85  A    between atoms: _191  and  _192
REMARK   86  A    between atoms: _194  and  _196
REMARK   87  A    between atoms: _196  and  _197
REMARK   88  A    between atoms: _199  and  _201
REMARK   89  A    between atoms: _201  and  _202
REMARK   90  A    between atoms: _204  and  _206
REMARK   91  A    between atoms: _206  and  _207
REMARK   92  A    between atoms: _206  and  _209
REMARK   93  A    between atoms: _209  and  _210
REMARK   94  A    between atoms: _213  and  _215
REMARK   95  A    between atoms: _215  and  _216
REMARK   96  A    between atoms: _215  and  _218
REMARK   97  A    between atoms: _221  and  _223
REMARK   98  A    between atoms: _223  and  _224
REMARK   99  A    between atoms: _223  and  _226
REMARK  100  A    between atoms: _226  and  _227
REMARK  101  A    between atoms: _229  and  _231
REMARK  102  A    between atoms: _231  and  _232
REMARK  103  A    between atoms: _231  and  _234
REMARK  104  A    between atoms: _234  and  _235
REMARK  105  A    between atoms: _245  and  _247
REMARK  106  A    between atoms: _247  and  _248
REMARK  107  A    between atoms: _250  and  _252
REMARK  108  A    between atoms: _252  and  _253
REMARK  109  A    between atoms: _252  and  _255
REMARK  110  A    between atoms: _255  and  _256
REMARK  111  A    between atoms: _258  and  _260
REMARK  112  A    between atoms: _260  and  _261
REMARK  113  A    between atoms: _263  and  _265
REMARK  114  A    between atoms: _265  and  _266
REMARK  115  A    between atoms: _265  and  _268
REMARK  116  A    between atoms: _268  and  _269
REMARK  117  A    between atoms: _270  and  _272
REMARK  118  A    between atoms: _272  and  _273
REMARK  119  A    between atoms: _276  and  _278
REMARK  120  A    between atoms: _278  and  _279
REMARK  121  A    between atoms: _278  and  _281
REMARK  122  A    between atoms: _281  and  _282
REMARK  123  A    between atoms: _282  and  _283
REMARK  124  A    between atoms: _288  and  _290
REMARK  125  A    between atoms: _290  and  _291
REMARK  126  A    between atoms: _290  and  _293
REMARK  127  A    between atoms: _293  and  _294
REMARK  128  A    between atoms: _294  and  _295
REMARK  129  A    between atoms: _295  and  _296
REMARK  130  A    between atoms: _296  and  _297
REMARK  131  A    between atoms: _302  and  _303
REMARK  132  A    between atoms: _308  and  _310
REMARK  133  A    between atoms: _310  and  _311
REMARK  134  A    between atoms: _313  and  _315
REMARK  135  A    between atoms: _315  and  _316
REMARK  136  A    between atoms: _315  and  _318
REMARK  137  A    between atoms: _321  and  _323
REMARK  138  A    between atoms: _323  and  _324
REMARK  139  A    between atoms: _323  and  _326
REMARK  140  A    between atoms: _326  and  _327
REMARK  141  A    between atoms: _332  and  _333
REMARK  142  A    between atoms: _335  and  _337
REMARK  143  A    between atoms: _337  and  _338
REMARK  144  A    between atoms: _337  and  _340
REMARK  145  A    between atoms: _340  and  _341
REMARK                            x       y       z     vdW  Elec       q    Type
REMARK                         _______ _______ _______ _____ _____    ______ ____
ROOT
ATOM      1  O   HOH     1      28.974   8.810  19.691  0.00  0.00    +0.000 OA
ENDROOT
TORSDOF 0
REMARK  Name = ../refined-set-2016/3nkk/3nkk_pocket.pdb
REMARK  145 active torsions:
REMARK  status: ('A' for Active; 'I' for Inactive)
REMARK    1  A    between atoms: _1  and  _5
REMARK    2  A    between atoms: _5  and  _6
REMARK    3  A    between atoms: _5  and  _8
REMARK    4  A    between atoms: _8  and  _9
REMARK    5  A    between atoms: _12  and  _14
REMARK    6  A    between atoms: _14  and  _15
REMARK    7  A    between atoms: _14  and  _17
REMARK    8  A    between atoms: _20  and  _22
REMARK    9  A    between atoms: _22  and  _23
REMARK   10  A    between atoms: _22  and  _25
REMARK   11  A    between atoms: _25  and  _26
REMARK   12  A    between atoms: _26  and  _50
REMARK   13  A    between atoms: _27  and  _29
REMARK   14  A    between atoms: _29  and  _30
REMARK   15  A    between atoms: _33  and  _35
REMARK   16  A    between atoms: _35  and  _36
REMARK   17  A    between atoms: _35  and  _38
REMARK   18  A    between atoms: _38  and  _39
REMARK   19  A    between atoms: _44  and  _46
REMARK   20  A    between atoms: _46  and  _47
REMARK   21  A    between atoms: _46  and  _49
REMARK   22  A    between atoms: _49  and  _50
REMARK   23  A    between atoms: _51  and  _53
REMARK   24  A    between atoms: _53  and  _54
REMARK   25  A    between atoms: _53  and  _56
REMARK   26  A    between atoms: _56  and  _57
REMARK   27  A    between atoms: _60  and  _62
REMARK   28  A    between atoms: _62  and  _63
REMARK   29  A    between atoms: _62  and  _65
REMARK   30  A    between atoms: _65  and  _66
REMARK   31  A    between atoms: _69  and  _71
REMARK   32  A    between atoms: _71  and  _72
REMARK   33  A    between atoms: _71  and  _74
REMARK   34  A    between atoms: _74  and  _75
REMARK   35  A    between atoms: _78  and  _80
REMARK   36  A    between atoms: _80  and  _81
REMARK   37  A    between atoms: _80  and  _83
REMARK   38  A    between atoms: _83  and  _84
REMARK   39  A    between atoms: _89  and  _91
REMARK   40  A    between atoms: _91  and  _92
REMARK   41  A    between atoms: _91  and  _94
REMARK   42  A    between atoms: _94  and  _95
REMARK   43  A    between atoms: _100  and  _101
REMARK   44  A    between atoms: _103  and  _105
REMARK   45  A    between atoms: _105  and  _106
REMARK   46  A    between atoms: _105  and  _108
REMARK   47  A    between atoms: _108  and  _109
REMARK   48  A    between atoms: _114  and  _115
REMARK   49  A    between atoms: _117  and  _119
REMARK   50  A    between atoms: _119  and  _120
REMARK   51  A    between atoms: _123  and  _125
REMARK   52  A    between atoms: _125  and  _126
REMARK   53  A    between atoms: _125  and  _128
REMARK   54  A    between atoms: _128  and  _129
REMARK   55  A    between atoms: _129  and  _130
REMARK   56  A    between atoms: _130  and  _131
REMARK   57  A    between atoms: _131  and  _132
REMARK   58  A    between atoms: _136  and  _138
REMARK   59  A    between atoms: _138  and  _139
REMARK   60  A    between atoms: _138  and  _141
REMARK   61  A    between atoms: _141  and  _142
REMARK   62  A    between atoms: _145  and  _147
REMARK   63  A    between atoms: _147  and  _148
REMARK   64  A    between atoms: _147  and  _150
REMARK   65  A    between atoms: _150  and  _151
REMARK   66  A    between atoms: _153  and  _155
REMARK   67  A    between atoms: _155  and  _156
REMARK   68  A    between atoms: _155  and  _158
REMARK   69  A    between atoms: _158  and  _159
REMARK   70  A    between atoms: _159  and  _269
REMARK   71  A    between atoms: _160  and  _162
REMARK   72  A    between atoms: _162  and  _163
REMARK   73  A    between atoms: _162  and  _165
REMARK   74  A    between atoms: _165  and  _166
REMARK   75  A    between atoms: _166  and  _167
REMARK   76  A    between atoms: _172  and  _174
REMARK   77  A    between atoms: _174  and  _175
REMARK   78  A    between atoms: _177  and  _179
REMARK   79  A    between atoms: _179  and  _180
REMARK   80  A    between atoms: _179  and  _182
REMARK   81  A    between atoms: _182  and  _183
REMARK   82  A    between atoms: _186  and  _188
REMARK   83  A    between atoms: _188  and  _189
REMARK   84  A    between atoms: _188  and  _191
REMARK   85  A    between atoms: _191  and  _192
REMARK   86  A    between atoms: _194  and  _196
REMARK   87  A    between atoms: _196  and  _197
REMARK   88  A    between atoms: _199  and  _201
REMARK   89  A    between atoms: _201  and  _202
REMARK   90  A    between atoms: _204  and  _206
REMARK   91  A    between atoms: _206  and  _207
REMARK   92  A    between atoms: _206  and  _209
REMARK   93  A    between atoms: _209  and  _210
REMARK   94  A    between atoms: _213  and  _215
REMARK   95  A    between atoms: _215  and  _216
REMARK   96  A    between atoms: _215  and  _218
REMARK   97  A    between atoms: _221  and  _223
REMARK   98  A    between atoms: _223  and  _224
REMARK   99  A    between atoms: _223  and  _226
REMARK  100  A    between atoms: _226  and  _227
REMARK  101  A    between atoms: _229  and  _231
REMARK  102  A    between atoms: _231  and  _232
REMARK  103  A    between atoms: _231  and  _234
REMARK  104  A    between atoms: _234  and  _235
REMARK  105  A    between atoms: _245  and  _247
REMARK  106  A    between atoms: _247  and  _248
REMARK  107  A    between atoms: _250  and  _252
REMARK  108  A    between atoms: _252  and  _253
REMARK  109  A    between atoms: _252  and  _255
REMARK  110  A    between atoms: _255  and  _256
REMARK  111  A    between atoms: _258  and  _260
REMARK  112  A    between atoms: _260  and  _261
REMARK  113  A    between atoms: _263  and  _265
REMARK  114  A    between atoms: _265  and  _266
REMARK  115  A    between atoms: _265  and  _268
REMARK  116  A    between atoms: _268  and  _269
REMARK  117  A    between atoms: _270  and  _272
REMARK  118  A    between atoms: _272  and  _273
REMARK  119  A    between atoms: _276  and  _278
REMARK  120  A    between atoms: _278  and  _279
REMARK  121  A    between atoms: _278  and  _281
REMARK  122  A    between atoms: _281  and  _282
REMARK  123  A    between atoms: _282  and  _283
REMARK  124  A    between atoms: _288  and  _290
REMARK  125  A    between atoms: _290  and  _291
REMARK  126  A    between atoms: _290  and  _293
REMARK  127  A    between atoms: _293  and  _294
REMARK  128  A    between atoms: _294  and  _295
REMARK  129  A    between atoms: _295  and  _296
REMARK  130  A    between atoms: _296  and  _297
REMARK  131  A    between atoms: _302  and  _303
REMARK  132  A    between atoms: _308  and  _310
REMARK  133  A    between atoms: _310  and  _311
REMARK  134  A    between atoms: _313  and  _315
REMARK  135  A    between atoms: _315  and  _316
REMARK  136  A    between atoms: _315  and  _318
REMARK  137  A    between atoms: _321  and  _323
REMARK  138  A    between atoms: _323  and  _324
REMARK  139  A    between atoms: _323  and  _326
REMARK  140  A    between atoms: _326  and  _327
REMARK  141  A    between atoms: _332  and  _333
REMARK  142  A    between atoms: _335  and  _337
REMARK  143  A    between atoms: _337  and  _338
REMARK  144  A    between atoms: _337  and  _340
REMARK  145  A    between atoms: _340  and  _341
REMARK                            x       y       z     vdW  Elec       q    Type
REMARK                         _______ _______ _______ _____ _____    ______ ____
ROOT
ATOM      1  O   HOH     1      29.343   9.966  22.305  0.00  0.00    +0.000 OA
ENDROOT
TORSDOF 0
REMARK  Name = ../refined-set-2016/3nkk/3nkk_pocket.pdb
REMARK  145 active torsions:
REMARK  status: ('A' for Active; 'I' for Inactive)
REMARK    1  A    between atoms: _1  and  _5
REMARK    2  A    between atoms: _5  and  _6
REMARK    3  A    between atoms: _5  and  _8
REMARK    4  A    between atoms: _8  and  _9
REMARK    5  A    between atoms: _12  and  _14
REMARK    6  A    between atoms: _14  and  _15
REMARK    7  A    between atoms: _14  and  _17
REMARK    8  A    between atoms: _20  and  _22
REMARK    9  A    between atoms: _22  and  _23
REMARK   10  A    between atoms: _22  and  _25
REMARK   11  A    between atoms: _25  and  _26
REMARK   12  A    between atoms: _26  and  _50
REMARK   13  A    between atoms: _27  and  _29
REMARK   14  A    between atoms: _29  and  _30
REMARK   15  A    between atoms: _33  and  _35
REMARK   16  A    between atoms: _35  and  _36
REMARK   17  A    between atoms: _35  and  _38
REMARK   18  A    between atoms: _38  and  _39
REMARK   19  A    between atoms: _44  and  _46
REMARK   20  A    between atoms: _46  and  _47
REMARK   21  A    between atoms: _46  and  _49
REMARK   22  A    between atoms: _49  and  _50
REMARK   23  A    between atoms: _51  and  _53
REMARK   24  A    between atoms: _53  and  _54
REMARK   25  A    between atoms: _53  and  _56
REMARK   26  A    between atoms: _56  and  _57
REMARK   27  A    between atoms: _60  and  _62
REMARK   28  A    between atoms: _62  and  _63
REMARK   29  A    between atoms: _62  and  _65
REMARK   30  A    between atoms: _65  and  _66
REMARK   31  A    between atoms: _69  and  _71
REMARK   32  A    between atoms: _71  and  _72
REMARK   33  A    between atoms: _71  and  _74
REMARK   34  A    between atoms: _74  and  _75
REMARK   35  A    between atoms: _78  and  _80
REMARK   36  A    between atoms: _80  and  _81
REMARK   37  A    between atoms: _80  and  _83
REMARK   38  A    between atoms: _83  and  _84
REMARK   39  A    between atoms: _89  and  _91
REMARK   40  A    between atoms: _91  and  _92
REMARK   41  A    between atoms: _91  and  _94
REMARK   42  A    between atoms: _94  and  _95
REMARK   43  A    between atoms: _100  and  _101
REMARK   44  A    between atoms: _103  and  _105
REMARK   45  A    between atoms: _105  and  _106
REMARK   46  A    between atoms: _105  and  _108
REMARK   47  A    between atoms: _108  and  _109
REMARK   48  A    between atoms: _114  and  _115
REMARK   49  A    between atoms: _117  and  _119
REMARK   50  A    between atoms: _119  and  _120
REMARK   51  A    between atoms: _123  and  _125
REMARK   52  A    between atoms: _125  and  _126
REMARK   53  A    between atoms: _125  and  _128
REMARK   54  A    between atoms: _128  and  _129
REMARK   55  A    between atoms: _129  and  _130
REMARK   56  A    between atoms: _130  and  _131
REMARK   57  A    between atoms: _131  and  _132
REMARK   58  A    between atoms: _136  and  _138
REMARK   59  A    between atoms: _138  and  _139
REMARK   60  A    between atoms: _138  and  _141
REMARK   61  A    between atoms: _141  and  _142
REMARK   62  A    between atoms: _145  and  _147
REMARK   63  A    between atoms: _147  and  _148
REMARK   64  A    between atoms: _147  and  _150
REMARK   65  A    between atoms: _150  and  _151
REMARK   66  A    between atoms: _153  and  _155
REMARK   67  A    between atoms: _155  and  _156
REMARK   68  A    between atoms: _155  and  _158
REMARK   69  A    between atoms: _158  and  _159
REMARK   70  A    between atoms: _159  and  _269
REMARK   71  A    between atoms: _160  and  _162
REMARK   72  A    between atoms: _162  and  _163
REMARK   73  A    between atoms: _162  and  _165
REMARK   74  A    between atoms: _165  and  _166
REMARK   75  A    between atoms: _166  and  _167
REMARK   76  A    between atoms: _172  and  _174
REMARK   77  A    between atoms: _174  and  _175
REMARK   78  A    between atoms: _177  and  _179
REMARK   79  A    between atoms: _179  and  _180
REMARK   80  A    between atoms: _179  and  _182
REMARK   81  A    between atoms: _182  and  _183
REMARK   82  A    between atoms: _186  and  _188
REMARK   83  A    between atoms: _188  and  _189
REMARK   84  A    between atoms: _188  and  _191
REMARK   85  A    between atoms: _191  and  _192
REMARK   86  A    between atoms: _194  and  _196
REMARK   87  A    between atoms: _196  and  _197
REMARK   88  A    between atoms: _199  and  _201
REMARK   89  A    between atoms: _201  and  _202
REMARK   90  A    between atoms: _204  and  _206
REMARK   91  A    between atoms: _206  and  _207
REMARK   92  A    between atoms: _206  and  _209
REMARK   93  A    between atoms: _209  and  _210
REMARK   94  A    between atoms: _213  and  _215
REMARK   95  A    between atoms: _215  and  _216
REMARK   96  A    between atoms: _215  and  _218
REMARK   97  A    between atoms: _221  and  _223
REMARK   98  A    between atoms: _223  and  _224
REMARK   99  A    between atoms: _223  and  _226
REMARK  100  A    between atoms: _226  and  _227
REMARK  101  A    between atoms: _229  and  _231
REMARK  102  A    between atoms: _231  and  _232
REMARK  103  A    between atoms: _231  and  _234
REMARK  104  A    between atoms: _234  and  _235
REMARK  105  A    between atoms: _245  and  _247
REMARK  106  A    between atoms: _247  and  _248
REMARK  107  A    between atoms: _250  and  _252
REMARK  108  A    between atoms: _252  and  _253
REMARK  109  A    between atoms: _252  and  _255
REMARK  110  A    between atoms: _255  and  _256
REMARK  111  A    between atoms: _258  and  _260
REMARK  112  A    between atoms: _260  and  _261
REMARK  113  A    between atoms: _263  and  _265
REMARK  114  A    between atoms: _265  and  _266
REMARK  115  A    between atoms: _265  and  _268
REMARK  116  A    between atoms: _268  and  _269
REMARK  117  A    between atoms: _270  and  _272
REMARK  118  A    between atoms: _272  and  _273
REMARK  119  A    between atoms: _276  and  _278
REMARK  120  A    between atoms: _278  and  _279
REMARK  121  A    between atoms: _278  and  _281
REMARK  122  A    between atoms: _281  and  _282
REMARK  123  A    between atoms: _282  and  _283
REMARK  124  A    between atoms: _288  and  _290
REMARK  125  A    between atoms: _290  and  _291
REMARK  126  A    between atoms: _290  and  _293
REMARK  127  A    between atoms: _293  and  _294
REMARK  128  A    between atoms: _294  and  _295
REMARK  129  A    between atoms: _295  and  _296
REMARK  130  A    between atoms: _296  and  _297
REMARK  131  A    between atoms: _302  and  _303
REMARK  132  A    between atoms: _308  and  _310
REMARK  133  A    between atoms: _310  and  _311
REMARK  134  A    between atoms: _313  and  _315
REMARK  135  A    between atoms: _315  and  _316
REMARK  136  A    between atoms: _315  and  _318
REMARK  137  A    between atoms: _321  and  _323
REMARK  138  A    between atoms: _323  and  _324
REMARK  139  A    between atoms: _323  and  _326
REMARK  140  A    between atoms: _326  and  _327
REMARK  141  A    between atoms: _332  and  _333
REMARK  142  A    between atoms: _335  and  _337
REMARK  143  A    between atoms: _337  and  _338
REMARK  144  A    between atoms: _337  and  _340
REMARK  145  A    between atoms: _340  and  _341
REMARK                            x       y       z     vdW  Elec       q    Type
REMARK                         _______ _______ _______ _____ _____    ______ ____
ROOT
ATOM      1  O   HOH     1      26.310  10.505  17.040  0.00  0.00    +0.000 OA
ENDROOT
TORSDOF 0
