REMARK  Name = ../refined-set-2016/3djv/3djv_pocket.pdb
REMARK  139 active torsions:
REMARK  status: ('A' for Active; 'I' for Inactive)
REMARK    1  A    between atoms: _1  and  _3
REMARK    2  A    between atoms: _3  and  _4
REMARK    3  A    between atoms: _3  and  _6
REMARK    4  A    between atoms: _6  and  _7
REMARK    5  A    between atoms: _7  and  _8
REMARK    6  A    between atoms: _10  and  _12
REMARK    7  A    between atoms: _12  and  _13
REMARK    8  A    between atoms: _12  and  _15
REMARK    9  A    between atoms: _15  and  _16
REMARK   10  A    between atoms: _16  and  _17
REMARK   11  A    between atoms: _19  and  _21
REMARK   12  A    between atoms: _21  and  _22
REMARK   13  A    between atoms: _21  and  _24
REMARK   14  A    between atoms: _24  and  _25
REMARK   15  A    between atoms: _25  and  _26
REMARK   16  A    between atoms: _26  and  _27
REMARK   17  A    between atoms: _27  and  _28
REMARK   18  A    between atoms: _32  and  _34
REMARK   19  A    between atoms: _34  and  _35
REMARK   20  A    between atoms: _34  and  _37
REMARK   21  A    between atoms: _37  and  _38
REMARK   22  A    between atoms: _38  and  _39
REMARK   23  A    between atoms: _39  and  _40
REMARK   24  A    between atoms: _40  and  _41
REMARK   25  A    between atoms: _46  and  _47
REMARK   26  A    between atoms: _52  and  _54
REMARK   27  A    between atoms: _54  and  _55
REMARK   28  A    between atoms: _54  and  _57
REMARK   29  A    between atoms: _60  and  _62
REMARK   30  A    between atoms: _62  and  _63
REMARK   31  A    between atoms: _62  and  _65
REMARK   32  A    between atoms: _65  and  _66
REMARK   33  A    between atoms: _71  and  _73
REMARK   34  A    between atoms: _73  and  _74
REMARK   35  A    between atoms: _73  and  _76
REMARK   36  A    between atoms: _76  and  _77
REMARK   37  A    between atoms: _80  and  _82
REMARK   38  A    between atoms: _82  and  _83
REMARK   39  A    between atoms: _82  and  _85
REMARK   40  A    between atoms: _85  and  _86
REMARK   41  A    between atoms: _92  and  _94
REMARK   42  A    between atoms: _94  and  _95
REMARK   43  A    between atoms: _94  and  _97
REMARK   44  A    between atoms: _97  and  _98
REMARK   45  A    between atoms: _98  and  _99
REMARK   46  A    between atoms: _99  and  _100
REMARK   47  A    between atoms: _100  and  _101
REMARK   48  A    between atoms: _105  and  _107
REMARK   49  A    between atoms: _107  and  _108
REMARK   50  A    between atoms: _107  and  _110
REMARK   51  A    between atoms: _110  and  _111
REMARK   52  A    between atoms: _116  and  _118
REMARK   53  A    between atoms: _118  and  _119
REMARK   54  A    between atoms: _118  and  _121
REMARK   55  A    between atoms: _121  and  _122
REMARK   56  A    between atoms: _125  and  _127
REMARK   57  A    between atoms: _127  and  _128
REMARK   58  A    between atoms: _127  and  _130
REMARK   59  A    between atoms: _130  and  _131
REMARK   60  A    between atoms: _134  and  _136
REMARK   61  A    between atoms: _136  and  _137
REMARK   62  A    between atoms: _136  and  _139
REMARK   63  A    between atoms: _139  and  _140
REMARK   64  A    between atoms: _143  and  _145
REMARK   65  A    between atoms: _145  and  _146
REMARK   66  A    between atoms: _145  and  _148
REMARK   67  A    between atoms: _150  and  _152
REMARK   68  A    between atoms: _152  and  _153
REMARK   69  A    between atoms: _152  and  _155
REMARK   70  A    between atoms: _155  and  _156
REMARK   71  A    between atoms: _156  and  _157
REMARK   72  A    between atoms: _157  and  _158
REMARK   73  A    between atoms: _167  and  _169
REMARK   74  A    between atoms: _169  and  _170
REMARK   75  A    between atoms: _169  and  _172
REMARK   76  A    between atoms: _172  and  _173
REMARK   77  A    between atoms: _173  and  _174
REMARK   78  A    between atoms: _174  and  _175
REMARK   79  A    between atoms: _175  and  _176
REMARK   80  A    between atoms: _180  and  _182
REMARK   81  A    between atoms: _182  and  _183
REMARK   82  A    between atoms: _182  and  _185
REMARK   83  A    between atoms: _185  and  _186
REMARK   84  A    between atoms: _191  and  _193
REMARK   85  A    between atoms: _193  and  _194
REMARK   86  A    between atoms: _193  and  _196
REMARK   87  A    between atoms: _196  and  _197
REMARK   88  A    between atoms: _200  and  _202
REMARK   89  A    between atoms: _202  and  _203
REMARK   90  A    between atoms: _206  and  _208
REMARK   91  A    between atoms: _208  and  _209
REMARK   92  A    between atoms: _208  and  _211
REMARK   93  A    between atoms: _214  and  _216
REMARK   94  A    between atoms: _216  and  _217
REMARK   95  A    between atoms: _216  and  _219
REMARK   96  A    between atoms: _219  and  _220
REMARK   97  A    between atoms: _225  and  _227
REMARK   98  A    between atoms: _227  and  _228
REMARK   99  A    between atoms: _227  and  _230
REMARK  100  A    between atoms: _230  and  _231
REMARK  101  A    between atoms: _237  and  _239
REMARK  102  A    between atoms: _239  and  _240
REMARK  103  A    between atoms: _239  and  _242
REMARK  104  A    between atoms: _242  and  _243
REMARK  105  A    between atoms: _246  and  _248
REMARK  106  A    between atoms: _248  and  _249
REMARK  107  A    between atoms: _252  and  _254
REMARK  108  A    between atoms: _254  and  _255
REMARK  109  A    between atoms: _254  and  _257
REMARK  110  A    between atoms: _257  and  _258
REMARK  111  A    between atoms: _260  and  _262
REMARK  112  A    between atoms: _262  and  _263
REMARK  113  A    between atoms: _262  and  _265
REMARK  114  A    between atoms: _269  and  _271
REMARK  115  A    between atoms: _271  and  _272
REMARK  116  A    between atoms: _271  and  _274
REMARK  117  A    between atoms: _274  and  _275
REMARK  118  A    between atoms: _275  and  _276
REMARK  119  A    between atoms: _276  and  _277
REMARK  120  A    between atoms: _277  and  _278
REMARK  121  A    between atoms: _282  and  _284
REMARK  122  A    between atoms: _284  and  _285
REMARK  123  A    between atoms: _284  and  _287
REMARK  124  A    between atoms: _287  and  _288
REMARK  125  A    between atoms: _294  and  _296
REMARK  126  A    between atoms: _296  and  _297
REMARK  127  A    between atoms: _296  and  _299
REMARK  128  A    between atoms: _299  and  _300
REMARK  129  A    between atoms: _300  and  _301
REMARK  130  A    between atoms: _301  and  _302
REMARK  131  A    between atoms: _311  and  _313
REMARK  132  A    between atoms: _313  and  _314
REMARK  133  A    between atoms: _313  and  _316
REMARK  134  A    between atoms: _316  and  _317
REMARK  135  A    between atoms: _317  and  _318
REMARK  136  A    between atoms: _323  and  _325
REMARK  137  A    between atoms: _325  and  _326
REMARK  138  A    between atoms: _325  and  _328
REMARK  139  A    between atoms: _328  and  _329
REMARK                            x       y       z     vdW  Elec       q    Type
REMARK                         _______ _______ _______ _____ _____    ______ ____
ROOT
ATOM      1  CA  MET A   1      22.479  30.146   9.837  0.00  0.00    +0.134 C 
ENDROOT
BRANCH   1   2
ATOM      2  N   MET A   1      22.094  29.244   8.761  0.00  0.00    -0.239 NA
ATOM      3  H   MET A   1      21.346  29.530   8.097  0.00  0.00    +0.142 HD
ENDBRANCH   1   2
BRANCH   1   4
ATOM      4  C   MET A   1      22.214  29.486  11.182  0.00  0.00    +0.224 C 
ATOM      5  O   MET A   1      22.970  29.679  12.129  0.00  0.00    -0.287 OA
ENDBRANCH   1   4
BRANCH   1   6
ATOM      6  CB  MET A   1      21.742  31.479   9.725  0.00  0.00    +0.037 C 
BRANCH   6   7
ATOM      7  CG  MET A   1      22.142  32.297   8.493  0.00  0.00    +0.059 C 
BRANCH   7   8
ATOM      8  SD  MET A   1      23.881  32.770   8.510  0.00  0.00    -0.139 S 
ATOM      9  CE  MET A   1      23.831  34.087   9.732  0.00  0.00    +0.069 C 
ENDBRANCH   7   8
ENDBRANCH   6   7
ENDBRANCH   1   6
TORSDOF 5
REMARK  Name = ../refined-set-2016/3djv/3djv_pocket.pdb
REMARK  139 active torsions:
REMARK  status: ('A' for Active; 'I' for Inactive)
REMARK    1  A    between atoms: _1  and  _3
REMARK    2  A    between atoms: _3  and  _4
REMARK    3  A    between atoms: _3  and  _6
REMARK    4  A    between atoms: _6  and  _7
REMARK    5  A    between atoms: _7  and  _8
REMARK    6  A    between atoms: _10  and  _12
REMARK    7  A    between atoms: _12  and  _13
REMARK    8  A    between atoms: _12  and  _15
REMARK    9  A    between atoms: _15  and  _16
REMARK   10  A    between atoms: _16  and  _17
REMARK   11  A    between atoms: _19  and  _21
REMARK   12  A    between atoms: _21  and  _22
REMARK   13  A    between atoms: _21  and  _24
REMARK   14  A    between atoms: _24  and  _25
REMARK   15  A    between atoms: _25  and  _26
REMARK   16  A    between atoms: _26  and  _27
REMARK   17  A    between atoms: _27  and  _28
REMARK   18  A    between atoms: _32  and  _34
REMARK   19  A    between atoms: _34  and  _35
REMARK   20  A    between atoms: _34  and  _37
REMARK   21  A    between atoms: _37  and  _38
REMARK   22  A    between atoms: _38  and  _39
REMARK   23  A    between atoms: _39  and  _40
REMARK   24  A    between atoms: _40  and  _41
REMARK   25  A    between atoms: _46  and  _47
REMARK   26  A    between atoms: _52  and  _54
REMARK   27  A    between atoms: _54  and  _55
REMARK   28  A    between atoms: _54  and  _57
REMARK   29  A    between atoms: _60  and  _62
REMARK   30  A    between atoms: _62  and  _63
REMARK   31  A    between atoms: _62  and  _65
REMARK   32  A    between atoms: _65  and  _66
REMARK   33  A    between atoms: _71  and  _73
REMARK   34  A    between atoms: _73  and  _74
REMARK   35  A    between atoms: _73  and  _76
REMARK   36  A    between atoms: _76  and  _77
REMARK   37  A    between atoms: _80  and  _82
REMARK   38  A    between atoms: _82  and  _83
REMARK   39  A    between atoms: _82  and  _85
REMARK   40  A    between atoms: _85  and  _86
REMARK   41  A    between atoms: _92  and  _94
REMARK   42  A    between atoms: _94  and  _95
REMARK   43  A    between atoms: _94  and  _97
REMARK   44  A    between atoms: _97  and  _98
REMARK   45  A    between atoms: _98  and  _99
REMARK   46  A    between atoms: _99  and  _100
REMARK   47  A    between atoms: _100  and  _101
REMARK   48  A    between atoms: _105  and  _107
REMARK   49  A    between atoms: _107  and  _108
REMARK   50  A    between atoms: _107  and  _110
REMARK   51  A    between atoms: _110  and  _111
REMARK   52  A    between atoms: _116  and  _118
REMARK   53  A    between atoms: _118  and  _119
REMARK   54  A    between atoms: _118  and  _121
REMARK   55  A    between atoms: _121  and  _122
REMARK   56  A    between atoms: _125  and  _127
REMARK   57  A    between atoms: _127  and  _128
REMARK   58  A    between atoms: _127  and  _130
REMARK   59  A    between atoms: _130  and  _131
REMARK   60  A    between atoms: _134  and  _136
REMARK   61  A    between atoms: _136  and  _137
REMARK   62  A    between atoms: _136  and  _139
REMARK   63  A    between atoms: _139  and  _140
REMARK   64  A    between atoms: _143  and  _145
REMARK   65  A    between atoms: _145  and  _146
REMARK   66  A    between atoms: _145  and  _148
REMARK   67  A    between atoms: _150  and  _152
REMARK   68  A    between atoms: _152  and  _153
REMARK   69  A    between atoms: _152  and  _155
REMARK   70  A    between atoms: _155  and  _156
REMARK   71  A    between atoms: _156  and  _157
REMARK   72  A    between atoms: _157  and  _158
REMARK   73  A    between atoms: _167  and  _169
REMARK   74  A    between atoms: _169  and  _170
REMARK   75  A    between atoms: _169  and  _172
REMARK   76  A    between atoms: _172  and  _173
REMARK   77  A    between atoms: _173  and  _174
REMARK   78  A    between atoms: _174  and  _175
REMARK   79  A    between atoms: _175  and  _176
REMARK   80  A    between atoms: _180  and  _182
REMARK   81  A    between atoms: _182  and  _183
REMARK   82  A    between atoms: _182  and  _185
REMARK   83  A    between atoms: _185  and  _186
REMARK   84  A    between atoms: _191  and  _193
REMARK   85  A    between atoms: _193  and  _194
REMARK   86  A    between atoms: _193  and  _196
REMARK   87  A    between atoms: _196  and  _197
REMARK   88  A    between atoms: _200  and  _202
REMARK   89  A    between atoms: _202  and  _203
REMARK   90  A    between atoms: _206  and  _208
REMARK   91  A    between atoms: _208  and  _209
REMARK   92  A    between atoms: _208  and  _211
REMARK   93  A    between atoms: _214  and  _216
REMARK   94  A    between atoms: _216  and  _217
REMARK   95  A    between atoms: _216  and  _219
REMARK   96  A    between atoms: _219  and  _220
REMARK   97  A    between atoms: _225  and  _227
REMARK   98  A    between atoms: _227  and  _228
REMARK   99  A    between atoms: _227  and  _230
REMARK  100  A    between atoms: _230  and  _231
REMARK  101  A    between atoms: _237  and  _239
REMARK  102  A    between atoms: _239  and  _240
REMARK  103  A    between atoms: _239  and  _242
REMARK  104  A    between atoms: _242  and  _243
REMARK  105  A    between atoms: _246  and  _248
REMARK  106  A    between atoms: _248  and  _249
REMARK  107  A    between atoms: _252  and  _254
REMARK  108  A    between atoms: _254  and  _255
REMARK  109  A    between atoms: _254  and  _257
REMARK  110  A    between atoms: _257  and  _258
REMARK  111  A    between atoms: _260  and  _262
REMARK  112  A    between atoms: _262  and  _263
REMARK  113  A    between atoms: _262  and  _265
REMARK  114  A    between atoms: _269  and  _271
REMARK  115  A    between atoms: _271  and  _272
REMARK  116  A    between atoms: _271  and  _274
REMARK  117  A    between atoms: _274  and  _275
REMARK  118  A    between atoms: _275  and  _276
REMARK  119  A    between atoms: _276  and  _277
REMARK  120  A    between atoms: _277  and  _278
REMARK  121  A    between atoms: _282  and  _284
REMARK  122  A    between atoms: _284  and  _285
REMARK  123  A    between atoms: _284  and  _287
REMARK  124  A    between atoms: _287  and  _288
REMARK  125  A    between atoms: _294  and  _296
REMARK  126  A    between atoms: _296  and  _297
REMARK  127  A    between atoms: _296  and  _299
REMARK  128  A    between atoms: _299  and  _300
REMARK  129  A    between atoms: _300  and  _301
REMARK  130  A    between atoms: _301  and  _302
REMARK  131  A    between atoms: _311  and  _313
REMARK  132  A    between atoms: _313  and  _314
REMARK  133  A    between atoms: _313  and  _316
REMARK  134  A    between atoms: _316  and  _317
REMARK  135  A    between atoms: _317  and  _318
REMARK  136  A    between atoms: _323  and  _325
REMARK  137  A    between atoms: _325  and  _326
REMARK  138  A    between atoms: _325  and  _328
REMARK  139  A    between atoms: _328  and  _329
REMARK                            x       y       z     vdW  Elec       q    Type
REMARK                         _______ _______ _______ _____ _____    ______ ____
ROOT
ATOM      1  CA  MET A   1      24.983  32.001  13.924  0.00  0.00    +0.134 C 
ENDROOT
BRANCH   1   2
ATOM      2  N   MET A   1      24.944  30.543  14.006  0.00  0.00    -0.239 NA
ATOM      3  H   MET A   1      24.370  30.006  13.325  0.00  0.00    +0.142 HD
ENDBRANCH   1   2
BRANCH   1   4
ATOM      4  C   MET A   1      23.656  32.661  14.301  0.00  0.00    +0.224 C 
ATOM      5  O   MET A   1      23.420  33.830  13.985  0.00  0.00    -0.287 OA
ENDBRANCH   1   4
BRANCH   1   6
ATOM      6  CB  MET A   1      25.486  32.451  12.554  0.00  0.00    +0.037 C 
BRANCH   6   7
ATOM      7  CG  MET A   1      26.981  32.253  12.405  0.00  0.00    +0.059 C 
BRANCH   7   8
ATOM      8  SD  MET A   1      27.551  32.518  10.729  0.00  0.00    -0.139 S 
ATOM      9  CE  MET A   1      27.020  30.988   9.938  0.00  0.00    +0.069 C 
ENDBRANCH   7   8
ENDBRANCH   6   7
ENDBRANCH   1   6
TORSDOF 5
REMARK  Name = ../refined-set-2016/3djv/3djv_pocket.pdb
REMARK  139 active torsions:
REMARK  status: ('A' for Active; 'I' for Inactive)
REMARK    1  A    between atoms: _1  and  _3
REMARK    2  A    between atoms: _3  and  _4
REMARK    3  A    between atoms: _3  and  _6
REMARK    4  A    between atoms: _6  and  _7
REMARK    5  A    between atoms: _7  and  _8
REMARK    6  A    between atoms: _10  and  _12
REMARK    7  A    between atoms: _12  and  _13
REMARK    8  A    between atoms: _12  and  _15
REMARK    9  A    between atoms: _15  and  _16
REMARK   10  A    between atoms: _16  and  _17
REMARK   11  A    between atoms: _19  and  _21
REMARK   12  A    between atoms: _21  and  _22
REMARK   13  A    between atoms: _21  and  _24
REMARK   14  A    between atoms: _24  and  _25
REMARK   15  A    between atoms: _25  and  _26
REMARK   16  A    between atoms: _26  and  _27
REMARK   17  A    between atoms: _27  and  _28
REMARK   18  A    between atoms: _32  and  _34
REMARK   19  A    between atoms: _34  and  _35
REMARK   20  A    between atoms: _34  and  _37
REMARK   21  A    between atoms: _37  and  _38
REMARK   22  A    between atoms: _38  and  _39
REMARK   23  A    between atoms: _39  and  _40
REMARK   24  A    between atoms: _40  and  _41
REMARK   25  A    between atoms: _46  and  _47
REMARK   26  A    between atoms: _52  and  _54
REMARK   27  A    between atoms: _54  and  _55
REMARK   28  A    between atoms: _54  and  _57
REMARK   29  A    between atoms: _60  and  _62
REMARK   30  A    between atoms: _62  and  _63
REMARK   31  A    between atoms: _62  and  _65
REMARK   32  A    between atoms: _65  and  _66
REMARK   33  A    between atoms: _71  and  _73
REMARK   34  A    between atoms: _73  and  _74
REMARK   35  A    between atoms: _73  and  _76
REMARK   36  A    between atoms: _76  and  _77
REMARK   37  A    between atoms: _80  and  _82
REMARK   38  A    between atoms: _82  and  _83
REMARK   39  A    between atoms: _82  and  _85
REMARK   40  A    between atoms: _85  and  _86
REMARK   41  A    between atoms: _92  and  _94
REMARK   42  A    between atoms: _94  and  _95
REMARK   43  A    between atoms: _94  and  _97
REMARK   44  A    between atoms: _97  and  _98
REMARK   45  A    between atoms: _98  and  _99
REMARK   46  A    between atoms: _99  and  _100
REMARK   47  A    between atoms: _100  and  _101
REMARK   48  A    between atoms: _105  and  _107
REMARK   49  A    between atoms: _107  and  _108
REMARK   50  A    between atoms: _107  and  _110
REMARK   51  A    between atoms: _110  and  _111
REMARK   52  A    between atoms: _116  and  _118
REMARK   53  A    between atoms: _118  and  _119
REMARK   54  A    between atoms: _118  and  _121
REMARK   55  A    between atoms: _121  and  _122
REMARK   56  A    between atoms: _125  and  _127
REMARK   57  A    between atoms: _127  and  _128
REMARK   58  A    between atoms: _127  and  _130
REMARK   59  A    between atoms: _130  and  _131
REMARK   60  A    between atoms: _134  and  _136
REMARK   61  A    between atoms: _136  and  _137
REMARK   62  A    between atoms: _136  and  _139
REMARK   63  A    between atoms: _139  and  _140
REMARK   64  A    between atoms: _143  and  _145
REMARK   65  A    between atoms: _145  and  _146
REMARK   66  A    between atoms: _145  and  _148
REMARK   67  A    between atoms: _150  and  _152
REMARK   68  A    between atoms: _152  and  _153
REMARK   69  A    between atoms: _152  and  _155
REMARK   70  A    between atoms: _155  and  _156
REMARK   71  A    between atoms: _156  and  _157
REMARK   72  A    between atoms: _157  and  _158
REMARK   73  A    between atoms: _167  and  _169
REMARK   74  A    between atoms: _169  and  _170
REMARK   75  A    between atoms: _169  and  _172
REMARK   76  A    between atoms: _172  and  _173
REMARK   77  A    between atoms: _173  and  _174
REMARK   78  A    between atoms: _174  and  _175
REMARK   79  A    between atoms: _175  and  _176
REMARK   80  A    between atoms: _180  and  _182
REMARK   81  A    between atoms: _182  and  _183
REMARK   82  A    between atoms: _182  and  _185
REMARK   83  A    between atoms: _185  and  _186
REMARK   84  A    between atoms: _191  and  _193
REMARK   85  A    between atoms: _193  and  _194
REMARK   86  A    between atoms: _193  and  _196
REMARK   87  A    between atoms: _196  and  _197
REMARK   88  A    between atoms: _200  and  _202
REMARK   89  A    between atoms: _202  and  _203
REMARK   90  A    between atoms: _206  and  _208
REMARK   91  A    between atoms: _208  and  _209
REMARK   92  A    between atoms: _208  and  _211
REMARK   93  A    between atoms: _214  and  _216
REMARK   94  A    between atoms: _216  and  _217
REMARK   95  A    between atoms: _216  and  _219
REMARK   96  A    between atoms: _219  and  _220
REMARK   97  A    between atoms: _225  and  _227
REMARK   98  A    between atoms: _227  and  _228
REMARK   99  A    between atoms: _227  and  _230
REMARK  100  A    between atoms: _230  and  _231
REMARK  101  A    between atoms: _237  and  _239
REMARK  102  A    between atoms: _239  and  _240
REMARK  103  A    between atoms: _239  and  _242
REMARK  104  A    between atoms: _242  and  _243
REMARK  105  A    between atoms: _246  and  _248
REMARK  106  A    between atoms: _248  and  _249
REMARK  107  A    between atoms: _252  and  _254
REMARK  108  A    between atoms: _254  and  _255
REMARK  109  A    between atoms: _254  and  _257
REMARK  110  A    between atoms: _257  and  _258
REMARK  111  A    between atoms: _260  and  _262
REMARK  112  A    between atoms: _262  and  _263
REMARK  113  A    between atoms: _262  and  _265
REMARK  114  A    between atoms: _269  and  _271
REMARK  115  A    between atoms: _271  and  _272
REMARK  116  A    between atoms: _271  and  _274
REMARK  117  A    between atoms: _274  and  _275
REMARK  118  A    between atoms: _275  and  _276
REMARK  119  A    between atoms: _276  and  _277
REMARK  120  A    between atoms: _277  and  _278
REMARK  121  A    between atoms: _282  and  _284
REMARK  122  A    between atoms: _284  and  _285
REMARK  123  A    between atoms: _284  and  _287
REMARK  124  A    between atoms: _287  and  _288
REMARK  125  A    between atoms: _294  and  _296
REMARK  126  A    between atoms: _296  and  _297
REMARK  127  A    between atoms: _296  and  _299
REMARK  128  A    between atoms: _299  and  _300
REMARK  129  A    between atoms: _300  and  _301
REMARK  130  A    between atoms: _301  and  _302
REMARK  131  A    between atoms: _311  and  _313
REMARK  132  A    between atoms: _313  and  _314
REMARK  133  A    between atoms: _313  and  _316
REMARK  134  A    between atoms: _316  and  _317
REMARK  135  A    between atoms: _317  and  _318
REMARK  136  A    between atoms: _323  and  _325
REMARK  137  A    between atoms: _325  and  _326
REMARK  138  A    between atoms: _325  and  _328
REMARK  139  A    between atoms: _328  and  _329
REMARK                            x       y       z     vdW  Elec       q    Type
REMARK                         _______ _______ _______ _____ _____    ______ ____
ROOT
ATOM      1  CG  LYS A   1      23.387  38.551  17.815  0.00  0.00    -0.000 C 
ENDROOT
BRANCH   1   2
ATOM      2  CB  LYS A   1      22.118  38.403  18.673  0.00  0.00    +0.025 C 
BRANCH   2   3
ATOM      3  CA  LYS A   1      21.308  37.097  18.515  0.00  0.00    +0.133 C 
BRANCH   3   4
ATOM      4  N   LYS A   1      21.810  36.049  19.403  0.00  0.00    -0.239 NA
ATOM      5  H   LYS A   1      22.425  35.314  18.999  0.00  0.00    +0.142 HD
ENDBRANCH   3   4
BRANCH   3   6
ATOM      6  C   LYS A   1      21.354  36.572  17.082  0.00  0.00    +0.224 C 
ATOM      7  O   LYS A   1      22.031  35.580  16.806  0.00  0.00    -0.287 OA
ENDBRANCH   3   6
ENDBRANCH   2   3
ENDBRANCH   1   2
BRANCH   1   8
ATOM      8  CD  LYS A   1      24.517  37.599  18.218  0.00  0.00    -0.024 C 
BRANCH   8   9
ATOM      9  CE  LYS A   1      25.786  37.826  17.389  0.00  0.00    -0.086 C 
BRANCH   9  10
ATOM     10  NZ  LYS A   1      25.649  37.423  15.951  0.00  0.00    +0.380 N 
ATOM     11  HZ1 LYS A   1      25.421  36.410  15.896  0.00  0.00    -0.089 HD
ATOM     12  HZ2 LYS A   1      24.887  37.976  15.508  0.00  0.00    -0.089 HD
ATOM     13  HZ3 LYS A   1      26.544  37.605  15.454  0.00  0.00    -0.089 HD
ENDBRANCH   9  10
ENDBRANCH   8   9
ENDBRANCH   1   8
TORSDOF 7
REMARK  Name = ../refined-set-2016/3djv/3djv_pocket.pdb
REMARK  139 active torsions:
REMARK  status: ('A' for Active; 'I' for Inactive)
REMARK    1  A    between atoms: _1  and  _3
REMARK    2  A    between atoms: _3  and  _4
REMARK    3  A    between atoms: _3  and  _6
REMARK    4  A    between atoms: _6  and  _7
REMARK    5  A    between atoms: _7  and  _8
REMARK    6  A    between atoms: _10  and  _12
REMARK    7  A    between atoms: _12  and  _13
REMARK    8  A    between atoms: _12  and  _15
REMARK    9  A    between atoms: _15  and  _16
REMARK   10  A    between atoms: _16  and  _17
REMARK   11  A    between atoms: _19  and  _21
REMARK   12  A    between atoms: _21  and  _22
REMARK   13  A    between atoms: _21  and  _24
REMARK   14  A    between atoms: _24  and  _25
REMARK   15  A    between atoms: _25  and  _26
REMARK   16  A    between atoms: _26  and  _27
REMARK   17  A    between atoms: _27  and  _28
REMARK   18  A    between atoms: _32  and  _34
REMARK   19  A    between atoms: _34  and  _35
REMARK   20  A    between atoms: _34  and  _37
REMARK   21  A    between atoms: _37  and  _38
REMARK   22  A    between atoms: _38  and  _39
REMARK   23  A    between atoms: _39  and  _40
REMARK   24  A    between atoms: _40  and  _41
REMARK   25  A    between atoms: _46  and  _47
REMARK   26  A    between atoms: _52  and  _54
REMARK   27  A    between atoms: _54  and  _55
REMARK   28  A    between atoms: _54  and  _57
REMARK   29  A    between atoms: _60  and  _62
REMARK   30  A    between atoms: _62  and  _63
REMARK   31  A    between atoms: _62  and  _65
REMARK   32  A    between atoms: _65  and  _66
REMARK   33  A    between atoms: _71  and  _73
REMARK   34  A    between atoms: _73  and  _74
REMARK   35  A    between atoms: _73  and  _76
REMARK   36  A    between atoms: _76  and  _77
REMARK   37  A    between atoms: _80  and  _82
REMARK   38  A    between atoms: _82  and  _83
REMARK   39  A    between atoms: _82  and  _85
REMARK   40  A    between atoms: _85  and  _86
REMARK   41  A    between atoms: _92  and  _94
REMARK   42  A    between atoms: _94  and  _95
REMARK   43  A    between atoms: _94  and  _97
REMARK   44  A    between atoms: _97  and  _98
REMARK   45  A    between atoms: _98  and  _99
REMARK   46  A    between atoms: _99  and  _100
REMARK   47  A    between atoms: _100  and  _101
REMARK   48  A    between atoms: _105  and  _107
REMARK   49  A    between atoms: _107  and  _108
REMARK   50  A    between atoms: _107  and  _110
REMARK   51  A    between atoms: _110  and  _111
REMARK   52  A    between atoms: _116  and  _118
REMARK   53  A    between atoms: _118  and  _119
REMARK   54  A    between atoms: _118  and  _121
REMARK   55  A    between atoms: _121  and  _122
REMARK   56  A    between atoms: _125  and  _127
REMARK   57  A    between atoms: _127  and  _128
REMARK   58  A    between atoms: _127  and  _130
REMARK   59  A    between atoms: _130  and  _131
REMARK   60  A    between atoms: _134  and  _136
REMARK   61  A    between atoms: _136  and  _137
REMARK   62  A    between atoms: _136  and  _139
REMARK   63  A    between atoms: _139  and  _140
REMARK   64  A    between atoms: _143  and  _145
REMARK   65  A    between atoms: _145  and  _146
REMARK   66  A    between atoms: _145  and  _148
REMARK   67  A    between atoms: _150  and  _152
REMARK   68  A    between atoms: _152  and  _153
REMARK   69  A    between atoms: _152  and  _155
REMARK   70  A    between atoms: _155  and  _156
REMARK   71  A    between atoms: _156  and  _157
REMARK   72  A    between atoms: _157  and  _158
REMARK   73  A    between atoms: _167  and  _169
REMARK   74  A    between atoms: _169  and  _170
REMARK   75  A    between atoms: _169  and  _172
REMARK   76  A    between atoms: _172  and  _173
REMARK   77  A    between atoms: _173  and  _174
REMARK   78  A    between atoms: _174  and  _175
REMARK   79  A    between atoms: _175  and  _176
REMARK   80  A    between atoms: _180  and  _182
REMARK   81  A    between atoms: _182  and  _183
REMARK   82  A    between atoms: _182  and  _185
REMARK   83  A    between atoms: _185  and  _186
REMARK   84  A    between atoms: _191  and  _193
REMARK   85  A    between atoms: _193  and  _194
REMARK   86  A    between atoms: _193  and  _196
REMARK   87  A    between atoms: _196  and  _197
REMARK   88  A    between atoms: _200  and  _202
REMARK   89  A    between atoms: _202  and  _203
REMARK   90  A    between atoms: _206  and  _208
REMARK   91  A    between atoms: _208  and  _209
REMARK   92  A    between atoms: _208  and  _211
REMARK   93  A    between atoms: _214  and  _216
REMARK   94  A    between atoms: _216  and  _217
REMARK   95  A    between atoms: _216  and  _219
REMARK   96  A    between atoms: _219  and  _220
REMARK   97  A    between atoms: _225  and  _227
REMARK   98  A    between atoms: _227  and  _228
REMARK   99  A    between atoms: _227  and  _230
REMARK  100  A    between atoms: _230  and  _231
REMARK  101  A    between atoms: _237  and  _239
REMARK  102  A    between atoms: _239  and  _240
REMARK  103  A    between atoms: _239  and  _242
REMARK  104  A    between atoms: _242  and  _243
REMARK  105  A    between atoms: _246  and  _248
REMARK  106  A    between atoms: _248  and  _249
REMARK  107  A    between atoms: _252  and  _254
REMARK  108  A    between atoms: _254  and  _255
REMARK  109  A    between atoms: _254  and  _257
REMARK  110  A    between atoms: _257  and  _258
REMARK  111  A    between atoms: _260  and  _262
REMARK  112  A    between atoms: _262  and  _263
REMARK  113  A    between atoms: _262  and  _265
REMARK  114  A    between atoms: _269  and  _271
REMARK  115  A    between atoms: _271  and  _272
REMARK  116  A    between atoms: _271  and  _274
REMARK  117  A    between atoms: _274  and  _275
REMARK  118  A    between atoms: _275  and  _276
REMARK  119  A    between atoms: _276  and  _277
REMARK  120  A    between atoms: _277  and  _278
REMARK  121  A    between atoms: _282  and  _284
REMARK  122  A    between atoms: _284  and  _285
REMARK  123  A    between atoms: _284  and  _287
REMARK  124  A    between atoms: _287  and  _288
REMARK  125  A    between atoms: _294  and  _296
REMARK  126  A    between atoms: _296  and  _297
REMARK  127  A    between atoms: _296  and  _299
REMARK  128  A    between atoms: _299  and  _300
REMARK  129  A    between atoms: _300  and  _301
REMARK  130  A    between atoms: _301  and  _302
REMARK  131  A    between atoms: _311  and  _313
REMARK  132  A    between atoms: _313  and  _314
REMARK  133  A    between atoms: _313  and  _316
REMARK  134  A    between atoms: _316  and  _317
REMARK  135  A    between atoms: _317  and  _318
REMARK  136  A    between atoms: _323  and  _325
REMARK  137  A    between atoms: _325  and  _326
REMARK  138  A    between atoms: _325  and  _328
REMARK  139  A    between atoms: _328  and  _329
REMARK                            x       y       z     vdW  Elec       q    Type
REMARK                         _______ _______ _______ _____ _____    ______ ____
ROOT
ATOM      1  C   VAL A   3      25.865  38.235   7.453  0.00  0.00    +0.241 C 
ATOM      2  O   VAL A   3      26.760  38.242   8.285  0.00  0.00    -0.273 OA
ATOM      3  N   ASN A   4      25.711  37.253   6.572  0.00  0.00    -0.297 N 
ATOM      4  H   ASN A   4      24.881  37.246   5.945  0.00  0.00    +0.150 HD
ENDROOT
BRANCH   3   5
ATOM      5  CA  ASN A   4      26.700  36.184   6.479  0.00  0.00    +0.158 C 
BRANCH   5   6
ATOM      6  C   ASN A   4      26.734  35.578   5.089  0.00  0.00    +0.241 C 
ATOM      7  N   THR A   5      27.944  35.308   4.610  0.00  0.00    -0.295 N 
ATOM      8  H   THR A   5      28.774  35.535   5.195  0.00  0.00    +0.150 HD
ATOM      9  O   ASN A   4      25.694  35.367   4.471  0.00  0.00    -0.273 OA
BRANCH   7  10
ATOM     10  CA  THR A   5      28.156  34.708   3.300  0.00  0.00    +0.176 C 
BRANCH  10  11
ATOM     11  C   THR A   5      28.633  33.263   3.408  0.00  0.00    +0.243 C 
ATOM     12  O   THR A   5      29.552  32.963   4.181  0.00  0.00    -0.273 OA
ATOM     13  N   PHE A   6      28.003  32.383   2.629  0.00  0.00    -0.298 N 
ATOM     14  H   PHE A   6      27.130  32.677   2.146  0.00  0.00    +0.150 HD
BRANCH  13  15
ATOM     15  CA  PHE A   6      28.493  31.019   2.428  0.00  0.00    +0.141 C 
BRANCH  15  16
ATOM     16  C   PHE A   6      29.087  30.872   1.038  0.00  0.00    +0.227 C 
ATOM     17  O   PHE A   6      28.540  31.385   0.059  0.00  0.00    -0.286 OA
ENDBRANCH  15  16
BRANCH  15  18
ATOM     18  CB  PHE A   6      27.382  29.980   2.636  0.00  0.00    +0.054 C 
BRANCH  18  19
ATOM     19  CG  PHE A   6      26.857  29.940   4.039  0.00  0.00    -0.020 A 
ATOM     20  CD2 PHE A   6      27.545  29.248   5.037  0.00  0.00    -0.004 A 
ATOM     21  CE2 PHE A   6      27.057  29.219   6.346  0.00  0.00    -0.000 A 
ATOM     22  CZ  PHE A   6      25.864  29.877   6.656  0.00  0.00    -0.000 A 
ATOM     23  CE1 PHE A   6      25.176  30.573   5.667  0.00  0.00    -0.000 A 
ATOM     24  CD1 PHE A   6      25.673  30.597   4.364  0.00  0.00    -0.004 A 
ENDBRANCH  18  19
ENDBRANCH  15  18
ENDBRANCH  13  15
ENDBRANCH  10  11
BRANCH  10  25
ATOM     25  CB  THR A   5      29.189  35.534   2.492  0.00  0.00    +0.137 C 
ATOM     26  CG2 THR A   5      29.456  34.911   1.121  0.00  0.00    +0.034 C 
BRANCH  25  27
ATOM     27  OG1 THR A   5      28.691  36.868   2.330  0.00  0.00    -0.382 OA
ATOM     28  HG1 THR A   5      27.829  36.840   1.844  0.00  0.00    +0.210 HD
ENDBRANCH  25  27
ENDBRANCH  10  25
ENDBRANCH   7  10
ENDBRANCH   5   6
BRANCH   5  29
ATOM     29  CB  ASN A   4      26.428  35.095   7.518  0.00  0.00    +0.114 C 
BRANCH  29  30
ATOM     30  CG  ASN A   4      27.577  34.115   7.641  0.00  0.00    +0.222 C 
ATOM     31  OD1 ASN A   4      28.592  34.422   8.253  0.00  0.00    -0.275 OA
ATOM     32  ND2 ASN A   4      27.421  32.932   7.058  0.00  0.00    -0.329 N 
ATOM     33 HD21 ASN A   4      28.179  32.222   7.111  0.00  0.00    +0.145 HD
ATOM     34 HD22 ASN A   4      26.541  32.715   6.549  0.00  0.00    +0.145 HD
ENDBRANCH  29  30
ENDBRANCH   5  29
ENDBRANCH   3   5
BRANCH   1  35
ATOM     35  CA  VAL A   3      24.855  39.367   7.405  0.00  0.00    +0.149 C 
BRANCH  35  37
ATOM     36  C   PRO A   2      23.075  39.877   9.019  0.00  0.00    +0.241 C 
ATOM     37  N   VAL A   3      24.353  39.594   8.763  0.00  0.00    -0.297 N 
ATOM     38  H   VAL A   3      25.020  39.532   9.559  0.00  0.00    +0.150 HD
ATOM     39  O   PRO A   2      22.204  39.922   8.148  0.00  0.00    -0.273 OA
BRANCH  36  45
ATOM     40  C   LYS A   1      23.266  38.137  11.665  0.00  0.00    +0.241 C 
ATOM     41  N   PRO A   2      23.451  39.463  11.508  0.00  0.00    -0.272 N 
ATOM     42  CD  PRO A   2      24.331  40.350  12.291  0.00  0.00    +0.094 C 
ATOM     43  CG  PRO A   2      24.191  41.681  11.612  0.00  0.00    +0.024 C 
ATOM     44  CB  PRO A   2      22.952  41.668  10.803  0.00  0.00    +0.031 C 
ATOM     45  CA  PRO A   2      22.699  40.188  10.470  0.00  0.00    +0.152 C 
ATOM     46  O   LYS A   1      22.583  37.469  10.896  0.00  0.00    -0.273 OA
BRANCH  40  47
ATOM     47  CA  LYS A   1      23.912  37.470  12.883  0.00  0.00    +0.145 C 
BRANCH  47  48
ATOM     48  N   LYS A   1      22.842  36.836  13.631  0.00  0.00    -0.238 NA
ATOM     49  H   LYS A   1      22.830  35.804  13.757  0.00  0.00    +0.142 HD
ENDBRANCH  47  48
BRANCH  47  50
ATOM     50  CB  LYS A   1      24.975  36.453  12.467  0.00  0.00    +0.026 C 
BRANCH  50  51
ATOM     51  CG  LYS A   1      26.148  37.089  11.755  0.00  0.00    -0.000 C 
BRANCH  51  52
ATOM     52  CD  LYS A   1      27.229  36.080  11.459  0.00  0.00    -0.024 C 
BRANCH  52  53
ATOM     53  CE  LYS A   1      28.402  36.744  10.765  0.00  0.00    -0.086 C 
BRANCH  53  54
ATOM     54  NZ  LYS A   1      29.505  35.784  10.443  0.00  0.00    +0.380 N 
ATOM     55  HZ1 LYS A   1      29.857  35.355  11.322  0.00  0.00    -0.089 HD
ATOM     56  HZ2 LYS A   1      30.279  36.293   9.970  0.00  0.00    -0.089 HD
ATOM     57  HZ3 LYS A   1      29.142  35.040   9.813  0.00  0.00    -0.089 HD
ENDBRANCH  53  54
ENDBRANCH  52  53
ENDBRANCH  51  52
ENDBRANCH  50  51
ENDBRANCH  47  50
ENDBRANCH  40  47
ENDBRANCH  36  45
ENDBRANCH  35  37
BRANCH  35  58
ATOM     58  CB  VAL A   3      25.555  40.630   6.807  0.00  0.00    +0.027 C 
ATOM     59  CG2 VAL A   3      24.602  41.820   6.771  0.00  0.00    +0.002 C 
ATOM     60  CG1 VAL A   3      26.085  40.352   5.405  0.00  0.00    +0.002 C 
ENDBRANCH  35  58
ENDBRANCH   1  35
TORSDOF 23
REMARK  Name = ../refined-set-2016/3djv/3djv_pocket.pdb
REMARK  139 active torsions:
REMARK  status: ('A' for Active; 'I' for Inactive)
REMARK    1  A    between atoms: _1  and  _3
REMARK    2  A    between atoms: _3  and  _4
REMARK    3  A    between atoms: _3  and  _6
REMARK    4  A    between atoms: _6  and  _7
REMARK    5  A    between atoms: _7  and  _8
REMARK    6  A    between atoms: _10  and  _12
REMARK    7  A    between atoms: _12  and  _13
REMARK    8  A    between atoms: _12  and  _15
REMARK    9  A    between atoms: _15  and  _16
REMARK   10  A    between atoms: _16  and  _17
REMARK   11  A    between atoms: _19  and  _21
REMARK   12  A    between atoms: _21  and  _22
REMARK   13  A    between atoms: _21  and  _24
REMARK   14  A    between atoms: _24  and  _25
REMARK   15  A    between atoms: _25  and  _26
REMARK   16  A    between atoms: _26  and  _27
REMARK   17  A    between atoms: _27  and  _28
REMARK   18  A    between atoms: _32  and  _34
REMARK   19  A    between atoms: _34  and  _35
REMARK   20  A    between atoms: _34  and  _37
REMARK   21  A    between atoms: _37  and  _38
REMARK   22  A    between atoms: _38  and  _39
REMARK   23  A    between atoms: _39  and  _40
REMARK   24  A    between atoms: _40  and  _41
REMARK   25  A    between atoms: _46  and  _47
REMARK   26  A    between atoms: _52  and  _54
REMARK   27  A    between atoms: _54  and  _55
REMARK   28  A    between atoms: _54  and  _57
REMARK   29  A    between atoms: _60  and  _62
REMARK   30  A    between atoms: _62  and  _63
REMARK   31  A    between atoms: _62  and  _65
REMARK   32  A    between atoms: _65  and  _66
REMARK   33  A    between atoms: _71  and  _73
REMARK   34  A    between atoms: _73  and  _74
REMARK   35  A    between atoms: _73  and  _76
REMARK   36  A    between atoms: _76  and  _77
REMARK   37  A    between atoms: _80  and  _82
REMARK   38  A    between atoms: _82  and  _83
REMARK   39  A    between atoms: _82  and  _85
REMARK   40  A    between atoms: _85  and  _86
REMARK   41  A    between atoms: _92  and  _94
REMARK   42  A    between atoms: _94  and  _95
REMARK   43  A    between atoms: _94  and  _97
REMARK   44  A    between atoms: _97  and  _98
REMARK   45  A    between atoms: _98  and  _99
REMARK   46  A    between atoms: _99  and  _100
REMARK   47  A    between atoms: _100  and  _101
REMARK   48  A    between atoms: _105  and  _107
REMARK   49  A    between atoms: _107  and  _108
REMARK   50  A    between atoms: _107  and  _110
REMARK   51  A    between atoms: _110  and  _111
REMARK   52  A    between atoms: _116  and  _118
REMARK   53  A    between atoms: _118  and  _119
REMARK   54  A    between atoms: _118  and  _121
REMARK   55  A    between atoms: _121  and  _122
REMARK   56  A    between atoms: _125  and  _127
REMARK   57  A    between atoms: _127  and  _128
REMARK   58  A    between atoms: _127  and  _130
REMARK   59  A    between atoms: _130  and  _131
REMARK   60  A    between atoms: _134  and  _136
REMARK   61  A    between atoms: _136  and  _137
REMARK   62  A    between atoms: _136  and  _139
REMARK   63  A    between atoms: _139  and  _140
REMARK   64  A    between atoms: _143  and  _145
REMARK   65  A    between atoms: _145  and  _146
REMARK   66  A    between atoms: _145  and  _148
REMARK   67  A    between atoms: _150  and  _152
REMARK   68  A    between atoms: _152  and  _153
REMARK   69  A    between atoms: _152  and  _155
REMARK   70  A    between atoms: _155  and  _156
REMARK   71  A    between atoms: _156  and  _157
REMARK   72  A    between atoms: _157  and  _158
REMARK   73  A    between atoms: _167  and  _169
REMARK   74  A    between atoms: _169  and  _170
REMARK   75  A    between atoms: _169  and  _172
REMARK   76  A    between atoms: _172  and  _173
REMARK   77  A    between atoms: _173  and  _174
REMARK   78  A    between atoms: _174  and  _175
REMARK   79  A    between atoms: _175  and  _176
REMARK   80  A    between atoms: _180  and  _182
REMARK   81  A    between atoms: _182  and  _183
REMARK   82  A    between atoms: _182  and  _185
REMARK   83  A    between atoms: _185  and  _186
REMARK   84  A    between atoms: _191  and  _193
REMARK   85  A    between atoms: _193  and  _194
REMARK   86  A    between atoms: _193  and  _196
REMARK   87  A    between atoms: _196  and  _197
REMARK   88  A    between atoms: _200  and  _202
REMARK   89  A    between atoms: _202  and  _203
REMARK   90  A    between atoms: _206  and  _208
REMARK   91  A    between atoms: _208  and  _209
REMARK   92  A    between atoms: _208  and  _211
REMARK   93  A    between atoms: _214  and  _216
REMARK   94  A    between atoms: _216  and  _217
REMARK   95  A    between atoms: _216  and  _219
REMARK   96  A    between atoms: _219  and  _220
REMARK   97  A    between atoms: _225  and  _227
REMARK   98  A    between atoms: _227  and  _228
REMARK   99  A    between atoms: _227  and  _230
REMARK  100  A    between atoms: _230  and  _231
REMARK  101  A    between atoms: _237  and  _239
REMARK  102  A    between atoms: _239  and  _240
REMARK  103  A    between atoms: _239  and  _242
REMARK  104  A    between atoms: _242  and  _243
REMARK  105  A    between atoms: _246  and  _248
REMARK  106  A    between atoms: _248  and  _249
REMARK  107  A    between atoms: _252  and  _254
REMARK  108  A    between atoms: _254  and  _255
REMARK  109  A    between atoms: _254  and  _257
REMARK  110  A    between atoms: _257  and  _258
REMARK  111  A    between atoms: _260  and  _262
REMARK  112  A    between atoms: _262  and  _263
REMARK  113  A    between atoms: _262  and  _265
REMARK  114  A    between atoms: _269  and  _271
REMARK  115  A    between atoms: _271  and  _272
REMARK  116  A    between atoms: _271  and  _274
REMARK  117  A    between atoms: _274  and  _275
REMARK  118  A    between atoms: _275  and  _276
REMARK  119  A    between atoms: _276  and  _277
REMARK  120  A    between atoms: _277  and  _278
REMARK  121  A    between atoms: _282  and  _284
REMARK  122  A    between atoms: _284  and  _285
REMARK  123  A    between atoms: _284  and  _287
REMARK  124  A    between atoms: _287  and  _288
REMARK  125  A    between atoms: _294  and  _296
REMARK  126  A    between atoms: _296  and  _297
REMARK  127  A    between atoms: _296  and  _299
REMARK  128  A    between atoms: _299  and  _300
REMARK  129  A    between atoms: _300  and  _301
REMARK  130  A    between atoms: _301  and  _302
REMARK  131  A    between atoms: _311  and  _313
REMARK  132  A    between atoms: _313  and  _314
REMARK  133  A    between atoms: _313  and  _316
REMARK  134  A    between atoms: _316  and  _317
REMARK  135  A    between atoms: _317  and  _318
REMARK  136  A    between atoms: _323  and  _325
REMARK  137  A    between atoms: _325  and  _326
REMARK  138  A    between atoms: _325  and  _328
REMARK  139  A    between atoms: _328  and  _329
REMARK                            x       y       z     vdW  Elec       q    Type
REMARK                         _______ _______ _______ _____ _____    ______ ____
ROOT
ATOM      1  C   LYS A   1      37.511  47.592   6.886  0.00  0.00    +0.238 C 
ATOM      2  N   ASN A   2      38.016  46.813   7.843  0.00  0.00    -0.298 N 
ATOM      3  H   ASN A   2      38.208  45.813   7.633  0.00  0.00    +0.150 HD
ATOM      4  O   LYS A   1      37.308  48.797   7.038  0.00  0.00    -0.274 OA
ENDROOT
BRANCH   1   5
ATOM      5  CA  LYS A   1      37.195  46.919   5.548  0.00  0.00    +0.145 C 
BRANCH   5   6
ATOM      6  N   LYS A   1      38.138  45.843   5.253  0.00  0.00    -0.238 NA
ATOM      7  H   LYS A   1      37.770  44.891   5.053  0.00  0.00    +0.142 HD
ENDBRANCH   5   6
BRANCH   5   8
ATOM      8  CB  LYS A   1      35.760  46.390   5.572  0.00  0.00    +0.026 C 
BRANCH   8   9
ATOM      9  CG  LYS A   1      35.129  46.136   4.210  0.00  0.00    -0.000 C 
BRANCH   9  10
ATOM     10  CD  LYS A   1      33.649  45.810   4.402  0.00  0.00    -0.024 C 
BRANCH  10  11
ATOM     11  CE  LYS A   1      32.934  45.523   3.094  0.00  0.00    -0.086 C 
BRANCH  11  12
ATOM     12  NZ  LYS A   1      31.771  44.602   3.319  0.00  0.00    +0.380 N 
ATOM     13  HZ1 LYS A   1      31.101  45.046   3.979  0.00  0.00    -0.089 HD
ATOM     14  HZ2 LYS A   1      32.113  43.706   3.721  0.00  0.00    -0.089 HD
ATOM     15  HZ3 LYS A   1      31.295  44.418   2.413  0.00  0.00    -0.089 HD
ENDBRANCH  11  12
ENDBRANCH  10  11
ENDBRANCH   9  10
ENDBRANCH   8   9
ENDBRANCH   5   8
ENDBRANCH   1   5
BRANCH   2  16
ATOM     16  CA  ASN A   2      38.308  47.329   9.183  0.00  0.00    +0.146 C 
BRANCH  16  17
ATOM     17  C   ASN A   2      39.719  47.903   9.351  0.00  0.00    +0.227 C 
ATOM     18  O   ASN A   2      40.140  48.213  10.465  0.00  0.00    -0.286 OA
ENDBRANCH  16  17
BRANCH  16  19
ATOM     19  CB  ASN A   2      38.037  46.257  10.249  0.00  0.00    +0.112 C 
BRANCH  19  20
ATOM     20  CG  ASN A   2      39.048  45.119  10.217  0.00  0.00    +0.222 C 
ATOM     21  ND2 ASN A   2      38.895  44.176  11.137  0.00  0.00    -0.329 N 
ATOM     22 HD21 ASN A   2      38.124  44.247  11.831  0.00  0.00    +0.145 HD
ATOM     23 HD22 ASN A   2      39.546  43.365  11.164  0.00  0.00    +0.145 HD
ATOM     24  OD1 ASN A   2      39.945  45.082   9.372  0.00  0.00    -0.275 OA
ENDBRANCH  19  20
ENDBRANCH  16  19
ENDBRANCH   2  16
TORSDOF 11
REMARK  Name = ../refined-set-2016/3djv/3djv_pocket.pdb
REMARK  139 active torsions:
REMARK  status: ('A' for Active; 'I' for Inactive)
REMARK    1  A    between atoms: _1  and  _3
REMARK    2  A    between atoms: _3  and  _4
REMARK    3  A    between atoms: _3  and  _6
REMARK    4  A    between atoms: _6  and  _7
REMARK    5  A    between atoms: _7  and  _8
REMARK    6  A    between atoms: _10  and  _12
REMARK    7  A    between atoms: _12  and  _13
REMARK    8  A    between atoms: _12  and  _15
REMARK    9  A    between atoms: _15  and  _16
REMARK   10  A    between atoms: _16  and  _17
REMARK   11  A    between atoms: _19  and  _21
REMARK   12  A    between atoms: _21  and  _22
REMARK   13  A    between atoms: _21  and  _24
REMARK   14  A    between atoms: _24  and  _25
REMARK   15  A    between atoms: _25  and  _26
REMARK   16  A    between atoms: _26  and  _27
REMARK   17  A    between atoms: _27  and  _28
REMARK   18  A    between atoms: _32  and  _34
REMARK   19  A    between atoms: _34  and  _35
REMARK   20  A    between atoms: _34  and  _37
REMARK   21  A    between atoms: _37  and  _38
REMARK   22  A    between atoms: _38  and  _39
REMARK   23  A    between atoms: _39  and  _40
REMARK   24  A    between atoms: _40  and  _41
REMARK   25  A    between atoms: _46  and  _47
REMARK   26  A    between atoms: _52  and  _54
REMARK   27  A    between atoms: _54  and  _55
REMARK   28  A    between atoms: _54  and  _57
REMARK   29  A    between atoms: _60  and  _62
REMARK   30  A    between atoms: _62  and  _63
REMARK   31  A    between atoms: _62  and  _65
REMARK   32  A    between atoms: _65  and  _66
REMARK   33  A    between atoms: _71  and  _73
REMARK   34  A    between atoms: _73  and  _74
REMARK   35  A    between atoms: _73  and  _76
REMARK   36  A    between atoms: _76  and  _77
REMARK   37  A    between atoms: _80  and  _82
REMARK   38  A    between atoms: _82  and  _83
REMARK   39  A    between atoms: _82  and  _85
REMARK   40  A    between atoms: _85  and  _86
REMARK   41  A    between atoms: _92  and  _94
REMARK   42  A    between atoms: _94  and  _95
REMARK   43  A    between atoms: _94  and  _97
REMARK   44  A    between atoms: _97  and  _98
REMARK   45  A    between atoms: _98  and  _99
REMARK   46  A    between atoms: _99  and  _100
REMARK   47  A    between atoms: _100  and  _101
REMARK   48  A    between atoms: _105  and  _107
REMARK   49  A    between atoms: _107  and  _108
REMARK   50  A    between atoms: _107  and  _110
REMARK   51  A    between atoms: _110  and  _111
REMARK   52  A    between atoms: _116  and  _118
REMARK   53  A    between atoms: _118  and  _119
REMARK   54  A    between atoms: _118  and  _121
REMARK   55  A    between atoms: _121  and  _122
REMARK   56  A    between atoms: _125  and  _127
REMARK   57  A    between atoms: _127  and  _128
REMARK   58  A    between atoms: _127  and  _130
REMARK   59  A    between atoms: _130  and  _131
REMARK   60  A    between atoms: _134  and  _136
REMARK   61  A    between atoms: _136  and  _137
REMARK   62  A    between atoms: _136  and  _139
REMARK   63  A    between atoms: _139  and  _140
REMARK   64  A    between atoms: _143  and  _145
REMARK   65  A    between atoms: _145  and  _146
REMARK   66  A    between atoms: _145  and  _148
REMARK   67  A    between atoms: _150  and  _152
REMARK   68  A    between atoms: _152  and  _153
REMARK   69  A    between atoms: _152  and  _155
REMARK   70  A    between atoms: _155  and  _156
REMARK   71  A    between atoms: _156  and  _157
REMARK   72  A    between atoms: _157  and  _158
REMARK   73  A    between atoms: _167  and  _169
REMARK   74  A    between atoms: _169  and  _170
REMARK   75  A    between atoms: _169  and  _172
REMARK   76  A    between atoms: _172  and  _173
REMARK   77  A    between atoms: _173  and  _174
REMARK   78  A    between atoms: _174  and  _175
REMARK   79  A    between atoms: _175  and  _176
REMARK   80  A    between atoms: _180  and  _182
REMARK   81  A    between atoms: _182  and  _183
REMARK   82  A    between atoms: _182  and  _185
REMARK   83  A    between atoms: _185  and  _186
REMARK   84  A    between atoms: _191  and  _193
REMARK   85  A    between atoms: _193  and  _194
REMARK   86  A    between atoms: _193  and  _196
REMARK   87  A    between atoms: _196  and  _197
REMARK   88  A    between atoms: _200  and  _202
REMARK   89  A    between atoms: _202  and  _203
REMARK   90  A    between atoms: _206  and  _208
REMARK   91  A    between atoms: _208  and  _209
REMARK   92  A    between atoms: _208  and  _211
REMARK   93  A    between atoms: _214  and  _216
REMARK   94  A    between atoms: _216  and  _217
REMARK   95  A    between atoms: _216  and  _219
REMARK   96  A    between atoms: _219  and  _220
REMARK   97  A    between atoms: _225  and  _227
REMARK   98  A    between atoms: _227  and  _228
REMARK   99  A    between atoms: _227  and  _230
REMARK  100  A    between atoms: _230  and  _231
REMARK  101  A    between atoms: _237  and  _239
REMARK  102  A    between atoms: _239  and  _240
REMARK  103  A    between atoms: _239  and  _242
REMARK  104  A    between atoms: _242  and  _243
REMARK  105  A    between atoms: _246  and  _248
REMARK  106  A    between atoms: _248  and  _249
REMARK  107  A    between atoms: _252  and  _254
REMARK  108  A    between atoms: _254  and  _255
REMARK  109  A    between atoms: _254  and  _257
REMARK  110  A    between atoms: _257  and  _258
REMARK  111  A    between atoms: _260  and  _262
REMARK  112  A    between atoms: _262  and  _263
REMARK  113  A    between atoms: _262  and  _265
REMARK  114  A    between atoms: _269  and  _271
REMARK  115  A    between atoms: _271  and  _272
REMARK  116  A    between atoms: _271  and  _274
REMARK  117  A    between atoms: _274  and  _275
REMARK  118  A    between atoms: _275  and  _276
REMARK  119  A    between atoms: _276  and  _277
REMARK  120  A    between atoms: _277  and  _278
REMARK  121  A    between atoms: _282  and  _284
REMARK  122  A    between atoms: _284  and  _285
REMARK  123  A    between atoms: _284  and  _287
REMARK  124  A    between atoms: _287  and  _288
REMARK  125  A    between atoms: _294  and  _296
REMARK  126  A    between atoms: _296  and  _297
REMARK  127  A    between atoms: _296  and  _299
REMARK  128  A    between atoms: _299  and  _300
REMARK  129  A    between atoms: _300  and  _301
REMARK  130  A    between atoms: _301  and  _302
REMARK  131  A    between atoms: _311  and  _313
REMARK  132  A    between atoms: _313  and  _314
REMARK  133  A    between atoms: _313  and  _316
REMARK  134  A    between atoms: _316  and  _317
REMARK  135  A    between atoms: _317  and  _318
REMARK  136  A    between atoms: _323  and  _325
REMARK  137  A    between atoms: _325  and  _326
REMARK  138  A    between atoms: _325  and  _328
REMARK  139  A    between atoms: _328  and  _329
REMARK                            x       y       z     vdW  Elec       q    Type
REMARK                         _______ _______ _______ _____ _____    ______ ____
ROOT
ATOM      1  C   ASP A   3      23.224  35.793   1.573  0.00  0.00    +0.241 C 
ATOM      2  N   CYS A   4      23.456  35.799   2.886  0.00  0.00    -0.296 N 
ATOM      3  H   CYS A   4      24.438  35.861   3.222  0.00  0.00    +0.150 HD
ATOM      4  O   ASP A   3      22.104  35.634   1.082  0.00  0.00    -0.273 OA
ENDROOT
BRANCH   2   5
ATOM      5  CA  CYS A   4      22.380  35.722   3.869  0.00  0.00    +0.160 C 
BRANCH   5   6
ATOM      6  C   CYS A   4      22.269  37.030   4.627  0.00  0.00    +0.242 C 
ATOM      7  O   CYS A   4      23.236  37.484   5.245  0.00  0.00    -0.273 OA
ATOM      8  N   ARG A   5      21.080  37.621   4.576  0.00  0.00    -0.298 N 
ATOM      9  H   ARG A   5      20.308  37.152   4.060  0.00  0.00    +0.150 HD
BRANCH   8  10
ATOM     10  CA  ARG A   5      20.819  38.904   5.219  0.00  0.00    +0.137 C 
BRANCH  10  11
ATOM     11  C   ARG A   5      19.466  38.875   5.901  0.00  0.00    +0.227 C 
ATOM     12  O   ARG A   5      18.474  38.448   5.308  0.00  0.00    -0.286 OA
ENDBRANCH  10  11
BRANCH  10  13
ATOM     13  CB  ARG A   5      20.882  40.051   4.200  0.00  0.00    +0.031 C 
BRANCH  13  14
ATOM     14  CG  ARG A   5      22.306  40.391   3.794  0.00  0.00    +0.045 C 
BRANCH  14  15
ATOM     15  CD  ARG A   5      22.397  41.457   2.724  0.00  0.00    +0.174 C 
BRANCH  15  16
ATOM     16  NE  ARG A   5      23.699  41.335   2.080  0.00  0.00    -0.265 N 
ATOM     17  CZ  ARG A   5      24.779  42.043   2.396  0.00  0.00    +0.342 C 
ATOM     18  NH2 ARG A   5      24.730  43.001   3.321  0.00  0.00    -0.292 N 
ATOM     19 HH21 ARG A   5      23.835  43.206   3.810  0.00  0.00    +0.255 HD
ATOM     20 HH22 ARG A   5      25.586  43.543   3.554  0.00  0.00    +0.255 HD
ATOM     21  NH1 ARG A   5      25.912  41.813   1.750  0.00  0.00    -0.292 N 
ATOM     22 HH11 ARG A   5      26.765  42.359   1.986  0.00  0.00    +0.255 HD
ATOM     23 HH12 ARG A   5      25.949  41.087   1.007  0.00  0.00    +0.255 HD
ATOM     24  HE  ARG A   5      23.790  40.639   1.313  0.00  0.00    +0.259 HD
ENDBRANCH  15  16
ENDBRANCH  14  15
ENDBRANCH  13  14
ENDBRANCH  10  13
ENDBRANCH   8  10
ENDBRANCH   5   6
BRANCH   5  25
ATOM     25  CB  CYS A   4      22.624  34.586   4.859  0.00  0.00    +0.098 C 
ATOM     26  SG  CYS A   4      22.761  32.951   4.125  0.00  0.00    -0.080 S 
ENDBRANCH   5  25
ENDBRANCH   2   5
BRANCH   1  27
ATOM     27  CA  ASP A   3      24.448  35.958   0.671  0.00  0.00    +0.160 C 
BRANCH  27  30
ATOM     28  C   THR A   2      25.222  33.726   0.046  0.00  0.00    +0.243 C 
ATOM     29  O   THR A   2      25.950  33.586   1.026  0.00  0.00    -0.273 OA
ATOM     30  N   ASP A   3      24.496  34.809  -0.198  0.00  0.00    -0.296 N 
ATOM     31  H   ASP A   3      23.927  34.830  -1.068  0.00  0.00    +0.150 HD
BRANCH  28  32
ATOM     32  CA  THR A   2      25.118  32.653  -1.011  0.00  0.00    +0.176 C 
BRANCH  32  34
ATOM     33  C   ILE A   1      26.826  32.479  -2.732  0.00  0.00    +0.238 C 
ATOM     34  N   THR A   2      26.460  32.341  -1.463  0.00  0.00    -0.295 N 
ATOM     35  H   THR A   2      27.158  31.998  -0.772  0.00  0.00    +0.150 HD
ATOM     36  O   ILE A   1      26.041  32.741  -3.647  0.00  0.00    -0.274 OA
BRANCH  33  37
ATOM     37  CA  ILE A   1      28.302  32.272  -3.009  0.00  0.00    +0.145 C 
BRANCH  37  38
ATOM     38  N   ILE A   1      28.514  32.049  -4.431  0.00  0.00    -0.238 NA
ATOM     39  H   ILE A   1      28.038  32.669  -5.117  0.00  0.00    +0.142 HD
ENDBRANCH  37  38
BRANCH  37  40
ATOM     40  CB  ILE A   1      29.103  33.497  -2.477  0.00  0.00    +0.025 C 
ATOM     41  CG2 ILE A   1      30.600  33.320  -2.753  0.00  0.00    +0.002 C 
BRANCH  40  42
ATOM     42  CG1 ILE A   1      28.552  34.814  -3.050  0.00  0.00    +0.002 C 
ATOM     43  CD1 ILE A   1      29.291  36.056  -2.570  0.00  0.00    +0.000 C 
ENDBRANCH  40  42
ENDBRANCH  37  40
ENDBRANCH  33  37
ENDBRANCH  32  34
BRANCH  32  44
ATOM     44  CB  THR A   2      24.385  31.409  -0.460  0.00  0.00    +0.137 C 
ATOM     45  CG2 THR A   2      23.027  31.790   0.142  0.00  0.00    +0.034 C 
BRANCH  44  46
ATOM     46  OG1 THR A   2      24.180  30.477  -1.524  0.00  0.00    -0.382 OA
ATOM     47  HG1 THR A   2      25.056  30.209  -1.900  0.00  0.00    +0.210 HD
ENDBRANCH  44  46
ENDBRANCH  32  44
ENDBRANCH  28  32
ENDBRANCH  27  30
BRANCH  27  48
ATOM     48  CB  ASP A   3      24.352  37.209  -0.212  0.00  0.00    +0.143 C 
BRANCH  48  49
ATOM     49  CG  ASP A   3      24.280  38.492   0.578  0.00  0.00    +0.367 C 
ATOM     50  OD2 ASP A   3      23.158  38.913   0.919  0.00  0.00    -0.246 OA
ATOM     51  OD1 ASP A   3      25.342  39.110   0.807  0.00  0.00    -0.246 OA
ENDBRANCH  48  49
ENDBRANCH  27  48
ENDBRANCH   1  27
TORSDOF 21
REMARK  Name = ../refined-set-2016/3djv/3djv_pocket.pdb
REMARK  139 active torsions:
REMARK  status: ('A' for Active; 'I' for Inactive)
REMARK    1  A    between atoms: _1  and  _3
REMARK    2  A    between atoms: _3  and  _4
REMARK    3  A    between atoms: _3  and  _6
REMARK    4  A    between atoms: _6  and  _7
REMARK    5  A    between atoms: _7  and  _8
REMARK    6  A    between atoms: _10  and  _12
REMARK    7  A    between atoms: _12  and  _13
REMARK    8  A    between atoms: _12  and  _15
REMARK    9  A    between atoms: _15  and  _16
REMARK   10  A    between atoms: _16  and  _17
REMARK   11  A    between atoms: _19  and  _21
REMARK   12  A    between atoms: _21  and  _22
REMARK   13  A    between atoms: _21  and  _24
REMARK   14  A    between atoms: _24  and  _25
REMARK   15  A    between atoms: _25  and  _26
REMARK   16  A    between atoms: _26  and  _27
REMARK   17  A    between atoms: _27  and  _28
REMARK   18  A    between atoms: _32  and  _34
REMARK   19  A    between atoms: _34  and  _35
REMARK   20  A    between atoms: _34  and  _37
REMARK   21  A    between atoms: _37  and  _38
REMARK   22  A    between atoms: _38  and  _39
REMARK   23  A    between atoms: _39  and  _40
REMARK   24  A    between atoms: _40  and  _41
REMARK   25  A    between atoms: _46  and  _47
REMARK   26  A    between atoms: _52  and  _54
REMARK   27  A    between atoms: _54  and  _55
REMARK   28  A    between atoms: _54  and  _57
REMARK   29  A    between atoms: _60  and  _62
REMARK   30  A    between atoms: _62  and  _63
REMARK   31  A    between atoms: _62  and  _65
REMARK   32  A    between atoms: _65  and  _66
REMARK   33  A    between atoms: _71  and  _73
REMARK   34  A    between atoms: _73  and  _74
REMARK   35  A    between atoms: _73  and  _76
REMARK   36  A    between atoms: _76  and  _77
REMARK   37  A    between atoms: _80  and  _82
REMARK   38  A    between atoms: _82  and  _83
REMARK   39  A    between atoms: _82  and  _85
REMARK   40  A    between atoms: _85  and  _86
REMARK   41  A    between atoms: _92  and  _94
REMARK   42  A    between atoms: _94  and  _95
REMARK   43  A    between atoms: _94  and  _97
REMARK   44  A    between atoms: _97  and  _98
REMARK   45  A    between atoms: _98  and  _99
REMARK   46  A    between atoms: _99  and  _100
REMARK   47  A    between atoms: _100  and  _101
REMARK   48  A    between atoms: _105  and  _107
REMARK   49  A    between atoms: _107  and  _108
REMARK   50  A    between atoms: _107  and  _110
REMARK   51  A    between atoms: _110  and  _111
REMARK   52  A    between atoms: _116  and  _118
REMARK   53  A    between atoms: _118  and  _119
REMARK   54  A    between atoms: _118  and  _121
REMARK   55  A    between atoms: _121  and  _122
REMARK   56  A    between atoms: _125  and  _127
REMARK   57  A    between atoms: _127  and  _128
REMARK   58  A    between atoms: _127  and  _130
REMARK   59  A    between atoms: _130  and  _131
REMARK   60  A    between atoms: _134  and  _136
REMARK   61  A    between atoms: _136  and  _137
REMARK   62  A    between atoms: _136  and  _139
REMARK   63  A    between atoms: _139  and  _140
REMARK   64  A    between atoms: _143  and  _145
REMARK   65  A    between atoms: _145  and  _146
REMARK   66  A    between atoms: _145  and  _148
REMARK   67  A    between atoms: _150  and  _152
REMARK   68  A    between atoms: _152  and  _153
REMARK   69  A    between atoms: _152  and  _155
REMARK   70  A    between atoms: _155  and  _156
REMARK   71  A    between atoms: _156  and  _157
REMARK   72  A    between atoms: _157  and  _158
REMARK   73  A    between atoms: _167  and  _169
REMARK   74  A    between atoms: _169  and  _170
REMARK   75  A    between atoms: _169  and  _172
REMARK   76  A    between atoms: _172  and  _173
REMARK   77  A    between atoms: _173  and  _174
REMARK   78  A    between atoms: _174  and  _175
REMARK   79  A    between atoms: _175  and  _176
REMARK   80  A    between atoms: _180  and  _182
REMARK   81  A    between atoms: _182  and  _183
REMARK   82  A    between atoms: _182  and  _185
REMARK   83  A    between atoms: _185  and  _186
REMARK   84  A    between atoms: _191  and  _193
REMARK   85  A    between atoms: _193  and  _194
REMARK   86  A    between atoms: _193  and  _196
REMARK   87  A    between atoms: _196  and  _197
REMARK   88  A    between atoms: _200  and  _202
REMARK   89  A    between atoms: _202  and  _203
REMARK   90  A    between atoms: _206  and  _208
REMARK   91  A    between atoms: _208  and  _209
REMARK   92  A    between atoms: _208  and  _211
REMARK   93  A    between atoms: _214  and  _216
REMARK   94  A    between atoms: _216  and  _217
REMARK   95  A    between atoms: _216  and  _219
REMARK   96  A    between atoms: _219  and  _220
REMARK   97  A    between atoms: _225  and  _227
REMARK   98  A    between atoms: _227  and  _228
REMARK   99  A    between atoms: _227  and  _230
REMARK  100  A    between atoms: _230  and  _231
REMARK  101  A    between atoms: _237  and  _239
REMARK  102  A    between atoms: _239  and  _240
REMARK  103  A    between atoms: _239  and  _242
REMARK  104  A    between atoms: _242  and  _243
REMARK  105  A    between atoms: _246  and  _248
REMARK  106  A    between atoms: _248  and  _249
REMARK  107  A    between atoms: _252  and  _254
REMARK  108  A    between atoms: _254  and  _255
REMARK  109  A    between atoms: _254  and  _257
REMARK  110  A    between atoms: _257  and  _258
REMARK  111  A    between atoms: _260  and  _262
REMARK  112  A    between atoms: _262  and  _263
REMARK  113  A    between atoms: _262  and  _265
REMARK  114  A    between atoms: _269  and  _271
REMARK  115  A    between atoms: _271  and  _272
REMARK  116  A    between atoms: _271  and  _274
REMARK  117  A    between atoms: _274  and  _275
REMARK  118  A    between atoms: _275  and  _276
REMARK  119  A    between atoms: _276  and  _277
REMARK  120  A    between atoms: _277  and  _278
REMARK  121  A    between atoms: _282  and  _284
REMARK  122  A    between atoms: _284  and  _285
REMARK  123  A    between atoms: _284  and  _287
REMARK  124  A    between atoms: _287  and  _288
REMARK  125  A    between atoms: _294  and  _296
REMARK  126  A    between atoms: _296  and  _297
REMARK  127  A    between atoms: _296  and  _299
REMARK  128  A    between atoms: _299  and  _300
REMARK  129  A    between atoms: _300  and  _301
REMARK  130  A    between atoms: _301  and  _302
REMARK  131  A    between atoms: _311  and  _313
REMARK  132  A    between atoms: _313  and  _314
REMARK  133  A    between atoms: _313  and  _316
REMARK  134  A    between atoms: _316  and  _317
REMARK  135  A    between atoms: _317  and  _318
REMARK  136  A    between atoms: _323  and  _325
REMARK  137  A    between atoms: _325  and  _326
REMARK  138  A    between atoms: _325  and  _328
REMARK  139  A    between atoms: _328  and  _329
REMARK                            x       y       z     vdW  Elec       q    Type
REMARK                         _______ _______ _______ _____ _____    ______ ____
ROOT
ATOM      1  C   LYS A   1      32.489  37.347  -6.383  0.00  0.00    +0.238 C 
ATOM      2  O   LYS A   1      32.765  36.198  -6.026  0.00  0.00    -0.274 OA
ATOM      3  N   HIS A   2      33.396  38.317  -6.460  0.00  0.00    -0.298 N 
ATOM      4  H   HIS A   2      33.162  39.214  -6.932  0.00  0.00    +0.150 HD
ENDROOT
BRANCH   1   5
ATOM      5  CA  LYS A   1      31.065  37.721  -6.744  0.00  0.00    +0.145 C 
BRANCH   5   6
ATOM      6  N   LYS A   1      30.303  36.522  -7.081  0.00  0.00    -0.238 NA
ATOM      7  H   LYS A   1      30.483  35.649  -6.545  0.00  0.00    +0.142 HD
ENDBRANCH   5   6
BRANCH   5   8
ATOM      8  CB  LYS A   1      30.434  38.428  -5.540  0.00  0.00    +0.026 C 
BRANCH   8   9
ATOM      9  CG  LYS A   1      29.130  39.145  -5.833  0.00  0.00    -0.000 C 
BRANCH   9  10
ATOM     10  CD  LYS A   1      28.524  39.735  -4.573  0.00  0.00    -0.024 C 
BRANCH  10  11
ATOM     11  CE  LYS A   1      29.029  41.141  -4.329  0.00  0.00    -0.086 C 
BRANCH  11  12
ATOM     12  NZ  LYS A   1      28.426  41.740  -3.097  0.00  0.00    +0.380 N 
ATOM     13  HZ1 LYS A   1      28.672  41.156  -2.273  0.00  0.00    -0.089 HD
ATOM     14  HZ2 LYS A   1      28.796  42.703  -2.964  0.00  0.00    -0.089 HD
ATOM     15  HZ3 LYS A   1      27.392  41.777  -3.201  0.00  0.00    -0.089 HD
ENDBRANCH  11  12
ENDBRANCH  10  11
ENDBRANCH   9  10
ENDBRANCH   8   9
ENDBRANCH   5   8
ENDBRANCH   1   5
BRANCH   3  16
ATOM     16  CA  HIS A   2      34.719  38.118  -5.880  0.00  0.00    +0.143 C 
BRANCH  16  17
ATOM     17  C   HIS A   2      34.569  38.135  -4.366  0.00  0.00    +0.227 C 
ATOM     18  O   HIS A   2      33.713  38.840  -3.825  0.00  0.00    -0.286 OA
ENDBRANCH  16  17
BRANCH  16  19
ATOM     19  CB  HIS A   2      35.695  39.205  -6.323  0.00  0.00    +0.075 C 
BRANCH  19  20
ATOM     20  CG  HIS A   2      35.880  39.277  -7.805  0.00  0.00    +0.082 A 
ATOM     21  ND1 HIS A   2      36.898  38.618  -8.461  0.00  0.00    -0.227 NA
ATOM     22  CE1 HIS A   2      36.807  38.856  -9.758  0.00  0.00    +0.199 A 
ATOM     23  NE2 HIS A   2      35.761  39.634  -9.967  0.00  0.00    -0.221 NA
ATOM     24  CD2 HIS A   2      35.166  39.916  -8.762  0.00  0.00    +0.115 A 
ENDBRANCH  19  20
ENDBRANCH  16  19
ENDBRANCH   3  16
TORSDOF 11
REMARK  Name = ../refined-set-2016/3djv/3djv_pocket.pdb
REMARK  139 active torsions:
REMARK  status: ('A' for Active; 'I' for Inactive)
REMARK    1  A    between atoms: _1  and  _3
REMARK    2  A    between atoms: _3  and  _4
REMARK    3  A    between atoms: _3  and  _6
REMARK    4  A    between atoms: _6  and  _7
REMARK    5  A    between atoms: _7  and  _8
REMARK    6  A    between atoms: _10  and  _12
REMARK    7  A    between atoms: _12  and  _13
REMARK    8  A    between atoms: _12  and  _15
REMARK    9  A    between atoms: _15  and  _16
REMARK   10  A    between atoms: _16  and  _17
REMARK   11  A    between atoms: _19  and  _21
REMARK   12  A    between atoms: _21  and  _22
REMARK   13  A    between atoms: _21  and  _24
REMARK   14  A    between atoms: _24  and  _25
REMARK   15  A    between atoms: _25  and  _26
REMARK   16  A    between atoms: _26  and  _27
REMARK   17  A    between atoms: _27  and  _28
REMARK   18  A    between atoms: _32  and  _34
REMARK   19  A    between atoms: _34  and  _35
REMARK   20  A    between atoms: _34  and  _37
REMARK   21  A    between atoms: _37  and  _38
REMARK   22  A    between atoms: _38  and  _39
REMARK   23  A    between atoms: _39  and  _40
REMARK   24  A    between atoms: _40  and  _41
REMARK   25  A    between atoms: _46  and  _47
REMARK   26  A    between atoms: _52  and  _54
REMARK   27  A    between atoms: _54  and  _55
REMARK   28  A    between atoms: _54  and  _57
REMARK   29  A    between atoms: _60  and  _62
REMARK   30  A    between atoms: _62  and  _63
REMARK   31  A    between atoms: _62  and  _65
REMARK   32  A    between atoms: _65  and  _66
REMARK   33  A    between atoms: _71  and  _73
REMARK   34  A    between atoms: _73  and  _74
REMARK   35  A    between atoms: _73  and  _76
REMARK   36  A    between atoms: _76  and  _77
REMARK   37  A    between atoms: _80  and  _82
REMARK   38  A    between atoms: _82  and  _83
REMARK   39  A    between atoms: _82  and  _85
REMARK   40  A    between atoms: _85  and  _86
REMARK   41  A    between atoms: _92  and  _94
REMARK   42  A    between atoms: _94  and  _95
REMARK   43  A    between atoms: _94  and  _97
REMARK   44  A    between atoms: _97  and  _98
REMARK   45  A    between atoms: _98  and  _99
REMARK   46  A    between atoms: _99  and  _100
REMARK   47  A    between atoms: _100  and  _101
REMARK   48  A    between atoms: _105  and  _107
REMARK   49  A    between atoms: _107  and  _108
REMARK   50  A    between atoms: _107  and  _110
REMARK   51  A    between atoms: _110  and  _111
REMARK   52  A    between atoms: _116  and  _118
REMARK   53  A    between atoms: _118  and  _119
REMARK   54  A    between atoms: _118  and  _121
REMARK   55  A    between atoms: _121  and  _122
REMARK   56  A    between atoms: _125  and  _127
REMARK   57  A    between atoms: _127  and  _128
REMARK   58  A    between atoms: _127  and  _130
REMARK   59  A    between atoms: _130  and  _131
REMARK   60  A    between atoms: _134  and  _136
REMARK   61  A    between atoms: _136  and  _137
REMARK   62  A    between atoms: _136  and  _139
REMARK   63  A    between atoms: _139  and  _140
REMARK   64  A    between atoms: _143  and  _145
REMARK   65  A    between atoms: _145  and  _146
REMARK   66  A    between atoms: _145  and  _148
REMARK   67  A    between atoms: _150  and  _152
REMARK   68  A    between atoms: _152  and  _153
REMARK   69  A    between atoms: _152  and  _155
REMARK   70  A    between atoms: _155  and  _156
REMARK   71  A    between atoms: _156  and  _157
REMARK   72  A    between atoms: _157  and  _158
REMARK   73  A    between atoms: _167  and  _169
REMARK   74  A    between atoms: _169  and  _170
REMARK   75  A    between atoms: _169  and  _172
REMARK   76  A    between atoms: _172  and  _173
REMARK   77  A    between atoms: _173  and  _174
REMARK   78  A    between atoms: _174  and  _175
REMARK   79  A    between atoms: _175  and  _176
REMARK   80  A    between atoms: _180  and  _182
REMARK   81  A    between atoms: _182  and  _183
REMARK   82  A    between atoms: _182  and  _185
REMARK   83  A    between atoms: _185  and  _186
REMARK   84  A    between atoms: _191  and  _193
REMARK   85  A    between atoms: _193  and  _194
REMARK   86  A    between atoms: _193  and  _196
REMARK   87  A    between atoms: _196  and  _197
REMARK   88  A    between atoms: _200  and  _202
REMARK   89  A    between atoms: _202  and  _203
REMARK   90  A    between atoms: _206  and  _208
REMARK   91  A    between atoms: _208  and  _209
REMARK   92  A    between atoms: _208  and  _211
REMARK   93  A    between atoms: _214  and  _216
REMARK   94  A    between atoms: _216  and  _217
REMARK   95  A    between atoms: _216  and  _219
REMARK   96  A    between atoms: _219  and  _220
REMARK   97  A    between atoms: _225  and  _227
REMARK   98  A    between atoms: _227  and  _228
REMARK   99  A    between atoms: _227  and  _230
REMARK  100  A    between atoms: _230  and  _231
REMARK  101  A    between atoms: _237  and  _239
REMARK  102  A    between atoms: _239  and  _240
REMARK  103  A    between atoms: _239  and  _242
REMARK  104  A    between atoms: _242  and  _243
REMARK  105  A    between atoms: _246  and  _248
REMARK  106  A    between atoms: _248  and  _249
REMARK  107  A    between atoms: _252  and  _254
REMARK  108  A    between atoms: _254  and  _255
REMARK  109  A    between atoms: _254  and  _257
REMARK  110  A    between atoms: _257  and  _258
REMARK  111  A    between atoms: _260  and  _262
REMARK  112  A    between atoms: _262  and  _263
REMARK  113  A    between atoms: _262  and  _265
REMARK  114  A    between atoms: _269  and  _271
REMARK  115  A    between atoms: _271  and  _272
REMARK  116  A    between atoms: _271  and  _274
REMARK  117  A    between atoms: _274  and  _275
REMARK  118  A    between atoms: _275  and  _276
REMARK  119  A    between atoms: _276  and  _277
REMARK  120  A    between atoms: _277  and  _278
REMARK  121  A    between atoms: _282  and  _284
REMARK  122  A    between atoms: _284  and  _285
REMARK  123  A    between atoms: _284  and  _287
REMARK  124  A    between atoms: _287  and  _288
REMARK  125  A    between atoms: _294  and  _296
REMARK  126  A    between atoms: _296  and  _297
REMARK  127  A    between atoms: _296  and  _299
REMARK  128  A    between atoms: _299  and  _300
REMARK  129  A    between atoms: _300  and  _301
REMARK  130  A    between atoms: _301  and  _302
REMARK  131  A    between atoms: _311  and  _313
REMARK  132  A    between atoms: _313  and  _314
REMARK  133  A    between atoms: _313  and  _316
REMARK  134  A    between atoms: _316  and  _317
REMARK  135  A    between atoms: _317  and  _318
REMARK  136  A    between atoms: _323  and  _325
REMARK  137  A    between atoms: _325  and  _326
REMARK  138  A    between atoms: _325  and  _328
REMARK  139  A    between atoms: _328  and  _329
REMARK                            x       y       z     vdW  Elec       q    Type
REMARK                         _______ _______ _______ _____ _____    ______ ____
ROOT
ATOM      1  CA  ILE A   1      37.642  39.209   0.167  0.00  0.00    +0.133 C 
ENDROOT
BRANCH   1   2
ATOM      2  N   ILE A   1      36.489  38.653  -0.525  0.00  0.00    -0.239 NA
ATOM      3  H   ILE A   1      35.545  38.759  -0.102  0.00  0.00    +0.142 HD
ENDBRANCH   1   2
BRANCH   1   4
ATOM      4  C   ILE A   1      37.673  38.553   1.528  0.00  0.00    +0.224 C 
ATOM      5  O   ILE A   1      36.679  38.587   2.270  0.00  0.00    -0.287 OA
ENDBRANCH   1   4
BRANCH   1   6
ATOM      6  CB  ILE A   1      37.564  40.746   0.302  0.00  0.00    +0.023 C 
ATOM      7  CG2 ILE A   1      38.741  41.271   1.123  0.00  0.00    +0.002 C 
BRANCH   6   8
ATOM      8  CG1 ILE A   1      37.562  41.400  -1.085  0.00  0.00    +0.002 C 
ATOM      9  CD1 ILE A   1      37.310  42.901  -1.076  0.00  0.00    +0.000 C 
ENDBRANCH   6   8
ENDBRANCH   1   6
TORSDOF 4
REMARK  Name = ../refined-set-2016/3djv/3djv_pocket.pdb
REMARK  139 active torsions:
REMARK  status: ('A' for Active; 'I' for Inactive)
REMARK    1  A    between atoms: _1  and  _3
REMARK    2  A    between atoms: _3  and  _4
REMARK    3  A    between atoms: _3  and  _6
REMARK    4  A    between atoms: _6  and  _7
REMARK    5  A    between atoms: _7  and  _8
REMARK    6  A    between atoms: _10  and  _12
REMARK    7  A    between atoms: _12  and  _13
REMARK    8  A    between atoms: _12  and  _15
REMARK    9  A    between atoms: _15  and  _16
REMARK   10  A    between atoms: _16  and  _17
REMARK   11  A    between atoms: _19  and  _21
REMARK   12  A    between atoms: _21  and  _22
REMARK   13  A    between atoms: _21  and  _24
REMARK   14  A    between atoms: _24  and  _25
REMARK   15  A    between atoms: _25  and  _26
REMARK   16  A    between atoms: _26  and  _27
REMARK   17  A    between atoms: _27  and  _28
REMARK   18  A    between atoms: _32  and  _34
REMARK   19  A    between atoms: _34  and  _35
REMARK   20  A    between atoms: _34  and  _37
REMARK   21  A    between atoms: _37  and  _38
REMARK   22  A    between atoms: _38  and  _39
REMARK   23  A    between atoms: _39  and  _40
REMARK   24  A    between atoms: _40  and  _41
REMARK   25  A    between atoms: _46  and  _47
REMARK   26  A    between atoms: _52  and  _54
REMARK   27  A    between atoms: _54  and  _55
REMARK   28  A    between atoms: _54  and  _57
REMARK   29  A    between atoms: _60  and  _62
REMARK   30  A    between atoms: _62  and  _63
REMARK   31  A    between atoms: _62  and  _65
REMARK   32  A    between atoms: _65  and  _66
REMARK   33  A    between atoms: _71  and  _73
REMARK   34  A    between atoms: _73  and  _74
REMARK   35  A    between atoms: _73  and  _76
REMARK   36  A    between atoms: _76  and  _77
REMARK   37  A    between atoms: _80  and  _82
REMARK   38  A    between atoms: _82  and  _83
REMARK   39  A    between atoms: _82  and  _85
REMARK   40  A    between atoms: _85  and  _86
REMARK   41  A    between atoms: _92  and  _94
REMARK   42  A    between atoms: _94  and  _95
REMARK   43  A    between atoms: _94  and  _97
REMARK   44  A    between atoms: _97  and  _98
REMARK   45  A    between atoms: _98  and  _99
REMARK   46  A    between atoms: _99  and  _100
REMARK   47  A    between atoms: _100  and  _101
REMARK   48  A    between atoms: _105  and  _107
REMARK   49  A    between atoms: _107  and  _108
REMARK   50  A    between atoms: _107  and  _110
REMARK   51  A    between atoms: _110  and  _111
REMARK   52  A    between atoms: _116  and  _118
REMARK   53  A    between atoms: _118  and  _119
REMARK   54  A    between atoms: _118  and  _121
REMARK   55  A    between atoms: _121  and  _122
REMARK   56  A    between atoms: _125  and  _127
REMARK   57  A    between atoms: _127  and  _128
REMARK   58  A    between atoms: _127  and  _130
REMARK   59  A    between atoms: _130  and  _131
REMARK   60  A    between atoms: _134  and  _136
REMARK   61  A    between atoms: _136  and  _137
REMARK   62  A    between atoms: _136  and  _139
REMARK   63  A    between atoms: _139  and  _140
REMARK   64  A    between atoms: _143  and  _145
REMARK   65  A    between atoms: _145  and  _146
REMARK   66  A    between atoms: _145  and  _148
REMARK   67  A    between atoms: _150  and  _152
REMARK   68  A    between atoms: _152  and  _153
REMARK   69  A    between atoms: _152  and  _155
REMARK   70  A    between atoms: _155  and  _156
REMARK   71  A    between atoms: _156  and  _157
REMARK   72  A    between atoms: _157  and  _158
REMARK   73  A    between atoms: _167  and  _169
REMARK   74  A    between atoms: _169  and  _170
REMARK   75  A    between atoms: _169  and  _172
REMARK   76  A    between atoms: _172  and  _173
REMARK   77  A    between atoms: _173  and  _174
REMARK   78  A    between atoms: _174  and  _175
REMARK   79  A    between atoms: _175  and  _176
REMARK   80  A    between atoms: _180  and  _182
REMARK   81  A    between atoms: _182  and  _183
REMARK   82  A    between atoms: _182  and  _185
REMARK   83  A    between atoms: _185  and  _186
REMARK   84  A    between atoms: _191  and  _193
REMARK   85  A    between atoms: _193  and  _194
REMARK   86  A    between atoms: _193  and  _196
REMARK   87  A    between atoms: _196  and  _197
REMARK   88  A    between atoms: _200  and  _202
REMARK   89  A    between atoms: _202  and  _203
REMARK   90  A    between atoms: _206  and  _208
REMARK   91  A    between atoms: _208  and  _209
REMARK   92  A    between atoms: _208  and  _211
REMARK   93  A    between atoms: _214  and  _216
REMARK   94  A    between atoms: _216  and  _217
REMARK   95  A    between atoms: _216  and  _219
REMARK   96  A    between atoms: _219  and  _220
REMARK   97  A    between atoms: _225  and  _227
REMARK   98  A    between atoms: _227  and  _228
REMARK   99  A    between atoms: _227  and  _230
REMARK  100  A    between atoms: _230  and  _231
REMARK  101  A    between atoms: _237  and  _239
REMARK  102  A    between atoms: _239  and  _240
REMARK  103  A    between atoms: _239  and  _242
REMARK  104  A    between atoms: _242  and  _243
REMARK  105  A    between atoms: _246  and  _248
REMARK  106  A    between atoms: _248  and  _249
REMARK  107  A    between atoms: _252  and  _254
REMARK  108  A    between atoms: _254  and  _255
REMARK  109  A    between atoms: _254  and  _257
REMARK  110  A    between atoms: _257  and  _258
REMARK  111  A    between atoms: _260  and  _262
REMARK  112  A    between atoms: _262  and  _263
REMARK  113  A    between atoms: _262  and  _265
REMARK  114  A    between atoms: _269  and  _271
REMARK  115  A    between atoms: _271  and  _272
REMARK  116  A    between atoms: _271  and  _274
REMARK  117  A    between atoms: _274  and  _275
REMARK  118  A    between atoms: _275  and  _276
REMARK  119  A    between atoms: _276  and  _277
REMARK  120  A    between atoms: _277  and  _278
REMARK  121  A    between atoms: _282  and  _284
REMARK  122  A    between atoms: _284  and  _285
REMARK  123  A    between atoms: _284  and  _287
REMARK  124  A    between atoms: _287  and  _288
REMARK  125  A    between atoms: _294  and  _296
REMARK  126  A    between atoms: _296  and  _297
REMARK  127  A    between atoms: _296  and  _299
REMARK  128  A    between atoms: _299  and  _300
REMARK  129  A    between atoms: _300  and  _301
REMARK  130  A    between atoms: _301  and  _302
REMARK  131  A    between atoms: _311  and  _313
REMARK  132  A    between atoms: _313  and  _314
REMARK  133  A    between atoms: _313  and  _316
REMARK  134  A    between atoms: _316  and  _317
REMARK  135  A    between atoms: _317  and  _318
REMARK  136  A    between atoms: _323  and  _325
REMARK  137  A    between atoms: _325  and  _326
REMARK  138  A    between atoms: _325  and  _328
REMARK  139  A    between atoms: _328  and  _329
REMARK                            x       y       z     vdW  Elec       q    Type
REMARK                         _______ _______ _______ _____ _____    ______ ____
ROOT
ATOM      1  CA  ALA A   1      41.497  37.855   5.869  0.00  0.00    +0.133 C 
ATOM      2  CB  ALA A   1      41.243  38.463   7.234  0.00  0.00    +0.027 C 
ENDROOT
BRANCH   1   3
ATOM      3  N   ALA A   1      40.254  37.675   5.127  0.00  0.00    -0.239 NA
ATOM      4  H   ALA A   1      39.365  37.512   5.641  0.00  0.00    +0.142 HD
ENDBRANCH   1   3
BRANCH   1   5
ATOM      5  C   ALA A   1      42.164  36.496   6.015  0.00  0.00    +0.224 C 
ATOM      6  O   ALA A   1      41.494  35.486   6.279  0.00  0.00    -0.287 OA
ENDBRANCH   1   5
TORSDOF 2
REMARK  Name = ../refined-set-2016/3djv/3djv_pocket.pdb
REMARK  139 active torsions:
REMARK  status: ('A' for Active; 'I' for Inactive)
REMARK    1  A    between atoms: _1  and  _3
REMARK    2  A    between atoms: _3  and  _4
REMARK    3  A    between atoms: _3  and  _6
REMARK    4  A    between atoms: _6  and  _7
REMARK    5  A    between atoms: _7  and  _8
REMARK    6  A    between atoms: _10  and  _12
REMARK    7  A    between atoms: _12  and  _13
REMARK    8  A    between atoms: _12  and  _15
REMARK    9  A    between atoms: _15  and  _16
REMARK   10  A    between atoms: _16  and  _17
REMARK   11  A    between atoms: _19  and  _21
REMARK   12  A    between atoms: _21  and  _22
REMARK   13  A    between atoms: _21  and  _24
REMARK   14  A    between atoms: _24  and  _25
REMARK   15  A    between atoms: _25  and  _26
REMARK   16  A    between atoms: _26  and  _27
REMARK   17  A    between atoms: _27  and  _28
REMARK   18  A    between atoms: _32  and  _34
REMARK   19  A    between atoms: _34  and  _35
REMARK   20  A    between atoms: _34  and  _37
REMARK   21  A    between atoms: _37  and  _38
REMARK   22  A    between atoms: _38  and  _39
REMARK   23  A    between atoms: _39  and  _40
REMARK   24  A    between atoms: _40  and  _41
REMARK   25  A    between atoms: _46  and  _47
REMARK   26  A    between atoms: _52  and  _54
REMARK   27  A    between atoms: _54  and  _55
REMARK   28  A    between atoms: _54  and  _57
REMARK   29  A    between atoms: _60  and  _62
REMARK   30  A    between atoms: _62  and  _63
REMARK   31  A    between atoms: _62  and  _65
REMARK   32  A    between atoms: _65  and  _66
REMARK   33  A    between atoms: _71  and  _73
REMARK   34  A    between atoms: _73  and  _74
REMARK   35  A    between atoms: _73  and  _76
REMARK   36  A    between atoms: _76  and  _77
REMARK   37  A    between atoms: _80  and  _82
REMARK   38  A    between atoms: _82  and  _83
REMARK   39  A    between atoms: _82  and  _85
REMARK   40  A    between atoms: _85  and  _86
REMARK   41  A    between atoms: _92  and  _94
REMARK   42  A    between atoms: _94  and  _95
REMARK   43  A    between atoms: _94  and  _97
REMARK   44  A    between atoms: _97  and  _98
REMARK   45  A    between atoms: _98  and  _99
REMARK   46  A    between atoms: _99  and  _100
REMARK   47  A    between atoms: _100  and  _101
REMARK   48  A    between atoms: _105  and  _107
REMARK   49  A    between atoms: _107  and  _108
REMARK   50  A    between atoms: _107  and  _110
REMARK   51  A    between atoms: _110  and  _111
REMARK   52  A    between atoms: _116  and  _118
REMARK   53  A    between atoms: _118  and  _119
REMARK   54  A    between atoms: _118  and  _121
REMARK   55  A    between atoms: _121  and  _122
REMARK   56  A    between atoms: _125  and  _127
REMARK   57  A    between atoms: _127  and  _128
REMARK   58  A    between atoms: _127  and  _130
REMARK   59  A    between atoms: _130  and  _131
REMARK   60  A    between atoms: _134  and  _136
REMARK   61  A    between atoms: _136  and  _137
REMARK   62  A    between atoms: _136  and  _139
REMARK   63  A    between atoms: _139  and  _140
REMARK   64  A    between atoms: _143  and  _145
REMARK   65  A    between atoms: _145  and  _146
REMARK   66  A    between atoms: _145  and  _148
REMARK   67  A    between atoms: _150  and  _152
REMARK   68  A    between atoms: _152  and  _153
REMARK   69  A    between atoms: _152  and  _155
REMARK   70  A    between atoms: _155  and  _156
REMARK   71  A    between atoms: _156  and  _157
REMARK   72  A    between atoms: _157  and  _158
REMARK   73  A    between atoms: _167  and  _169
REMARK   74  A    between atoms: _169  and  _170
REMARK   75  A    between atoms: _169  and  _172
REMARK   76  A    between atoms: _172  and  _173
REMARK   77  A    between atoms: _173  and  _174
REMARK   78  A    between atoms: _174  and  _175
REMARK   79  A    between atoms: _175  and  _176
REMARK   80  A    between atoms: _180  and  _182
REMARK   81  A    between atoms: _182  and  _183
REMARK   82  A    between atoms: _182  and  _185
REMARK   83  A    between atoms: _185  and  _186
REMARK   84  A    between atoms: _191  and  _193
REMARK   85  A    between atoms: _193  and  _194
REMARK   86  A    between atoms: _193  and  _196
REMARK   87  A    between atoms: _196  and  _197
REMARK   88  A    between atoms: _200  and  _202
REMARK   89  A    between atoms: _202  and  _203
REMARK   90  A    between atoms: _206  and  _208
REMARK   91  A    between atoms: _208  and  _209
REMARK   92  A    between atoms: _208  and  _211
REMARK   93  A    between atoms: _214  and  _216
REMARK   94  A    between atoms: _216  and  _217
REMARK   95  A    between atoms: _216  and  _219
REMARK   96  A    between atoms: _219  and  _220
REMARK   97  A    between atoms: _225  and  _227
REMARK   98  A    between atoms: _227  and  _228
REMARK   99  A    between atoms: _227  and  _230
REMARK  100  A    between atoms: _230  and  _231
REMARK  101  A    between atoms: _237  and  _239
REMARK  102  A    between atoms: _239  and  _240
REMARK  103  A    between atoms: _239  and  _242
REMARK  104  A    between atoms: _242  and  _243
REMARK  105  A    between atoms: _246  and  _248
REMARK  106  A    between atoms: _248  and  _249
REMARK  107  A    between atoms: _252  and  _254
REMARK  108  A    between atoms: _254  and  _255
REMARK  109  A    between atoms: _254  and  _257
REMARK  110  A    between atoms: _257  and  _258
REMARK  111  A    between atoms: _260  and  _262
REMARK  112  A    between atoms: _262  and  _263
REMARK  113  A    between atoms: _262  and  _265
REMARK  114  A    between atoms: _269  and  _271
REMARK  115  A    between atoms: _271  and  _272
REMARK  116  A    between atoms: _271  and  _274
REMARK  117  A    between atoms: _274  and  _275
REMARK  118  A    between atoms: _275  and  _276
REMARK  119  A    between atoms: _276  and  _277
REMARK  120  A    between atoms: _277  and  _278
REMARK  121  A    between atoms: _282  and  _284
REMARK  122  A    between atoms: _284  and  _285
REMARK  123  A    between atoms: _284  and  _287
REMARK  124  A    between atoms: _287  and  _288
REMARK  125  A    between atoms: _294  and  _296
REMARK  126  A    between atoms: _296  and  _297
REMARK  127  A    between atoms: _296  and  _299
REMARK  128  A    between atoms: _299  and  _300
REMARK  129  A    between atoms: _300  and  _301
REMARK  130  A    between atoms: _301  and  _302
REMARK  131  A    between atoms: _311  and  _313
REMARK  132  A    between atoms: _313  and  _314
REMARK  133  A    between atoms: _313  and  _316
REMARK  134  A    between atoms: _316  and  _317
REMARK  135  A    between atoms: _317  and  _318
REMARK  136  A    between atoms: _323  and  _325
REMARK  137  A    between atoms: _325  and  _326
REMARK  138  A    between atoms: _325  and  _328
REMARK  139  A    between atoms: _328  and  _329
REMARK                            x       y       z     vdW  Elec       q    Type
REMARK                         _______ _______ _______ _____ _____    ______ ____
ROOT
ATOM      1  C   PHE A   3      34.923  38.324   5.672  0.00  0.00    +0.241 C 
ATOM      2  O   PHE A   3      34.146  38.813   6.492  0.00  0.00    -0.273 OA
ATOM      3  N   ASP A   4      35.608  39.059   4.800  0.00  0.00    -0.297 N 
ATOM      4  H   ASP A   4      36.160  38.593   4.052  0.00  0.00    +0.150 HD
ENDROOT
BRANCH   3   5
ATOM      5  CA  ASP A   4      35.588  40.516   4.888  0.00  0.00    +0.160 C 
BRANCH   5   6
ATOM      6  C   ASP A   4      34.464  41.171   4.087  0.00  0.00    +0.241 C 
ATOM      7  O   ASP A   4      33.748  42.047   4.592  0.00  0.00    -0.273 OA
ATOM      8  N   ALA A   5      34.337  40.756   2.830  0.00  0.00    -0.297 N 
ATOM      9  H   ALA A   5      34.926  39.964   2.502  0.00  0.00    +0.150 HD
BRANCH   8  10
ATOM     10  CA  ALA A   5      33.403  41.370   1.895  0.00  0.00    +0.149 C 
ATOM     11  CB  ALA A   5      33.899  42.750   1.488  0.00  0.00    +0.031 C 
BRANCH  10  12
ATOM     12  C   ALA A   5      33.240  40.513   0.661  0.00  0.00    +0.241 C 
ATOM     13  O   ALA A   5      34.080  39.663   0.371  0.00  0.00    -0.273 OA
ATOM     14  N   SER A   6      32.147  40.746  -0.056  0.00  0.00    -0.295 N 
ATOM     15  H   SER A   6      31.362  41.276   0.374  0.00  0.00    +0.150 HD
BRANCH  14  16
ATOM     16  CA  SER A   6      32.019  40.278  -1.430  0.00  0.00    +0.178 C 
BRANCH  16  17
ATOM     17  C   SER A   6      31.891  41.504  -2.328  0.00  0.00    +0.243 C 
ATOM     18  O   SER A   6      31.274  42.501  -1.939  0.00  0.00    -0.273 OA
ATOM     19  N   VAL A   7      32.500  41.443  -3.510  0.00  0.00    -0.295 N 
ATOM     20  H   VAL A   7      32.965  40.557  -3.792  0.00  0.00    +0.150 HD
BRANCH  19  21
ATOM     21  CA  VAL A   7      32.535  42.587  -4.426  0.00  0.00    +0.176 C 
BRANCH  21  22
ATOM     22  C   VAL A   7      32.213  42.177  -5.859  0.00  0.00    +0.382 C 
ATOM     23  OXT VAL A   7      32.402  41.026  -6.261  0.00  0.00    -0.244 OA
ATOM     24  O   VAL A   7      31.749  42.998  -6.649  0.00  0.00    -0.244 OA
ENDBRANCH  21  22
BRANCH  21  25
ATOM     25  CB  VAL A   7      33.895  43.357  -4.380  0.00  0.00    +0.029 C 
ATOM     26  CG2 VAL A   7      34.079  44.065  -3.042  0.00  0.00    +0.002 C 
ATOM     27  CG1 VAL A   7      35.074  42.431  -4.672  0.00  0.00    +0.002 C 
ENDBRANCH  21  25
ENDBRANCH  19  21
ENDBRANCH  16  17
BRANCH  16  28
ATOM     28  CB  SER A   6      30.823  39.338  -1.591  0.00  0.00    +0.166 C 
BRANCH  28  29
ATOM     29  OG  SER A   6      29.604  39.988  -1.280  0.00  0.00    -0.380 OA
ATOM     30  H   SER A   6      28.854  39.352  -1.395  0.00  0.00    +0.211 HD
ENDBRANCH  28  29
ENDBRANCH  16  28
ENDBRANCH  14  16
ENDBRANCH  10  12
ENDBRANCH   8  10
ENDBRANCH   5   6
BRANCH   5  31
ATOM     31  CB  ASP A   4      36.932  41.090   4.454  0.00  0.00    +0.143 C 
BRANCH  31  32
ATOM     32  CG  ASP A   4      37.152  42.498   4.969  0.00  0.00    +0.367 C 
ATOM     33  OD2 ASP A   4      37.154  42.679   6.207  0.00  0.00    -0.246 OA
ATOM     34  OD1 ASP A   4      37.334  43.415   4.148  0.00  0.00    -0.246 OA
ENDBRANCH  31  32
ENDBRANCH   5  31
ENDBRANCH   3   5
BRANCH   1  35
ATOM     35  CA  PHE A   3      35.144  36.823   5.614  0.00  0.00    +0.153 C 
BRANCH  35  37
ATOM     36  C   HIS A   2      37.043  36.279   7.003  0.00  0.00    +0.241 C 
ATOM     37  N   PHE A   3      35.729  36.410   6.881  0.00  0.00    -0.297 N 
ATOM     38  H   PHE A   3      35.113  36.216   7.696  0.00  0.00    +0.150 HD
ATOM     39  O   HIS A   2      37.812  36.342   6.047  0.00  0.00    -0.273 OA
BRANCH  36  40
ATOM     40  CA  HIS A   2      37.571  36.011   8.395  0.00  0.00    +0.155 C 
BRANCH  40  43
ATOM     41  C   VAL A   1      39.015  34.270   9.300  0.00  0.00    +0.238 C 
ATOM     42  O   VAL A   1      38.384  34.241  10.353  0.00  0.00    -0.274 OA
ATOM     43  N   HIS A   2      38.706  35.089   8.302  0.00  0.00    -0.297 N 
ATOM     44  H   HIS A   2      39.282  35.076   7.436  0.00  0.00    +0.150 HD
BRANCH  41  45
ATOM     45  CA  VAL A   1      40.212  33.344   9.080  0.00  0.00    +0.145 C 
BRANCH  45  46
ATOM     46  CB  VAL A   1      41.384  33.749  10.020  0.00  0.00    +0.025 C 
ATOM     47  CG2 VAL A   1      42.440  32.640  10.066  0.00  0.00    +0.002 C 
ATOM     48  CG1 VAL A   1      42.000  35.084   9.581  0.00  0.00    +0.002 C 
ENDBRANCH  45  46
BRANCH  45  49
ATOM     49  N   VAL A   1      40.630  33.276   7.679  0.00  0.00    -0.238 NA
ATOM     50  H   VAL A   1      40.884  34.157   7.187  0.00  0.00    +0.142 HD
ENDBRANCH  45  49
ENDBRANCH  41  45
ENDBRANCH  40  43
BRANCH  40  51
ATOM     51  CB  HIS A   2      38.006  37.317   9.071  0.00  0.00    +0.076 C 
BRANCH  51  52
ATOM     52  CG  HIS A   2      36.878  38.245   9.405  0.00  0.00    +0.082 A 
ATOM     53  CD2 HIS A   2      35.966  38.218  10.406  0.00  0.00    +0.115 A 
ATOM     54  NE2 HIS A   2      35.162  39.322  10.253  0.00  0.00    -0.221 NA
ATOM     55  CE1 HIS A   2      35.569  40.006   9.198  0.00  0.00    +0.199 A 
ATOM     56  ND1 HIS A   2      36.609  39.382   8.674  0.00  0.00    -0.227 NA
ENDBRANCH  51  52
ENDBRANCH  40  51
ENDBRANCH  36  40
ENDBRANCH  35  37
BRANCH  35  57
ATOM     57  CB  PHE A   3      33.821  36.103   5.341  0.00  0.00    +0.055 C 
BRANCH  57  58
ATOM     58  CG  PHE A   3      33.335  36.279   3.937  0.00  0.00    -0.020 A 
ATOM     59  CD2 PHE A   3      32.605  37.410   3.577  0.00  0.00    -0.004 A 
ATOM     60  CE2 PHE A   3      32.175  37.588   2.270  0.00  0.00    -0.000 A 
ATOM     61  CZ  PHE A   3      32.483  36.625   1.307  0.00  0.00    -0.000 A 
ATOM     62  CE1 PHE A   3      33.214  35.497   1.653  0.00  0.00    -0.000 A 
ATOM     63  CD1 PHE A   3      33.642  35.329   2.965  0.00  0.00    -0.004 A 
ENDBRANCH  57  58
ENDBRANCH  35  57
ENDBRANCH   1  35
TORSDOF 24
REMARK  Name = ../refined-set-2016/3djv/3djv_pocket.pdb
REMARK  139 active torsions:
REMARK  status: ('A' for Active; 'I' for Inactive)
REMARK    1  A    between atoms: _1  and  _3
REMARK    2  A    between atoms: _3  and  _4
REMARK    3  A    between atoms: _3  and  _6
REMARK    4  A    between atoms: _6  and  _7
REMARK    5  A    between atoms: _7  and  _8
REMARK    6  A    between atoms: _10  and  _12
REMARK    7  A    between atoms: _12  and  _13
REMARK    8  A    between atoms: _12  and  _15
REMARK    9  A    between atoms: _15  and  _16
REMARK   10  A    between atoms: _16  and  _17
REMARK   11  A    between atoms: _19  and  _21
REMARK   12  A    between atoms: _21  and  _22
REMARK   13  A    between atoms: _21  and  _24
REMARK   14  A    between atoms: _24  and  _25
REMARK   15  A    between atoms: _25  and  _26
REMARK   16  A    between atoms: _26  and  _27
REMARK   17  A    between atoms: _27  and  _28
REMARK   18  A    between atoms: _32  and  _34
REMARK   19  A    between atoms: _34  and  _35
REMARK   20  A    between atoms: _34  and  _37
REMARK   21  A    between atoms: _37  and  _38
REMARK   22  A    between atoms: _38  and  _39
REMARK   23  A    between atoms: _39  and  _40
REMARK   24  A    between atoms: _40  and  _41
REMARK   25  A    between atoms: _46  and  _47
REMARK   26  A    between atoms: _52  and  _54
REMARK   27  A    between atoms: _54  and  _55
REMARK   28  A    between atoms: _54  and  _57
REMARK   29  A    between atoms: _60  and  _62
REMARK   30  A    between atoms: _62  and  _63
REMARK   31  A    between atoms: _62  and  _65
REMARK   32  A    between atoms: _65  and  _66
REMARK   33  A    between atoms: _71  and  _73
REMARK   34  A    between atoms: _73  and  _74
REMARK   35  A    between atoms: _73  and  _76
REMARK   36  A    between atoms: _76  and  _77
REMARK   37  A    between atoms: _80  and  _82
REMARK   38  A    between atoms: _82  and  _83
REMARK   39  A    between atoms: _82  and  _85
REMARK   40  A    between atoms: _85  and  _86
REMARK   41  A    between atoms: _92  and  _94
REMARK   42  A    between atoms: _94  and  _95
REMARK   43  A    between atoms: _94  and  _97
REMARK   44  A    between atoms: _97  and  _98
REMARK   45  A    between atoms: _98  and  _99
REMARK   46  A    between atoms: _99  and  _100
REMARK   47  A    between atoms: _100  and  _101
REMARK   48  A    between atoms: _105  and  _107
REMARK   49  A    between atoms: _107  and  _108
REMARK   50  A    between atoms: _107  and  _110
REMARK   51  A    between atoms: _110  and  _111
REMARK   52  A    between atoms: _116  and  _118
REMARK   53  A    between atoms: _118  and  _119
REMARK   54  A    between atoms: _118  and  _121
REMARK   55  A    between atoms: _121  and  _122
REMARK   56  A    between atoms: _125  and  _127
REMARK   57  A    between atoms: _127  and  _128
REMARK   58  A    between atoms: _127  and  _130
REMARK   59  A    between atoms: _130  and  _131
REMARK   60  A    between atoms: _134  and  _136
REMARK   61  A    between atoms: _136  and  _137
REMARK   62  A    between atoms: _136  and  _139
REMARK   63  A    between atoms: _139  and  _140
REMARK   64  A    between atoms: _143  and  _145
REMARK   65  A    between atoms: _145  and  _146
REMARK   66  A    between atoms: _145  and  _148
REMARK   67  A    between atoms: _150  and  _152
REMARK   68  A    between atoms: _152  and  _153
REMARK   69  A    between atoms: _152  and  _155
REMARK   70  A    between atoms: _155  and  _156
REMARK   71  A    between atoms: _156  and  _157
REMARK   72  A    between atoms: _157  and  _158
REMARK   73  A    between atoms: _167  and  _169
REMARK   74  A    between atoms: _169  and  _170
REMARK   75  A    between atoms: _169  and  _172
REMARK   76  A    between atoms: _172  and  _173
REMARK   77  A    between atoms: _173  and  _174
REMARK   78  A    between atoms: _174  and  _175
REMARK   79  A    between atoms: _175  and  _176
REMARK   80  A    between atoms: _180  and  _182
REMARK   81  A    between atoms: _182  and  _183
REMARK   82  A    between atoms: _182  and  _185
REMARK   83  A    between atoms: _185  and  _186
REMARK   84  A    between atoms: _191  and  _193
REMARK   85  A    between atoms: _193  and  _194
REMARK   86  A    between atoms: _193  and  _196
REMARK   87  A    between atoms: _196  and  _197
REMARK   88  A    between atoms: _200  and  _202
REMARK   89  A    between atoms: _202  and  _203
REMARK   90  A    between atoms: _206  and  _208
REMARK   91  A    between atoms: _208  and  _209
REMARK   92  A    between atoms: _208  and  _211
REMARK   93  A    between atoms: _214  and  _216
REMARK   94  A    between atoms: _216  and  _217
REMARK   95  A    between atoms: _216  and  _219
REMARK   96  A    between atoms: _219  and  _220
REMARK   97  A    between atoms: _225  and  _227
REMARK   98  A    between atoms: _227  and  _228
REMARK   99  A    between atoms: _227  and  _230
REMARK  100  A    between atoms: _230  and  _231
REMARK  101  A    between atoms: _237  and  _239
REMARK  102  A    between atoms: _239  and  _240
REMARK  103  A    between atoms: _239  and  _242
REMARK  104  A    between atoms: _242  and  _243
REMARK  105  A    between atoms: _246  and  _248
REMARK  106  A    between atoms: _248  and  _249
REMARK  107  A    between atoms: _252  and  _254
REMARK  108  A    between atoms: _254  and  _255
REMARK  109  A    between atoms: _254  and  _257
REMARK  110  A    between atoms: _257  and  _258
REMARK  111  A    between atoms: _260  and  _262
REMARK  112  A    between atoms: _262  and  _263
REMARK  113  A    between atoms: _262  and  _265
REMARK  114  A    between atoms: _269  and  _271
REMARK  115  A    between atoms: _271  and  _272
REMARK  116  A    between atoms: _271  and  _274
REMARK  117  A    between atoms: _274  and  _275
REMARK  118  A    between atoms: _275  and  _276
REMARK  119  A    between atoms: _276  and  _277
REMARK  120  A    between atoms: _277  and  _278
REMARK  121  A    between atoms: _282  and  _284
REMARK  122  A    between atoms: _284  and  _285
REMARK  123  A    between atoms: _284  and  _287
REMARK  124  A    between atoms: _287  and  _288
REMARK  125  A    between atoms: _294  and  _296
REMARK  126  A    between atoms: _296  and  _297
REMARK  127  A    between atoms: _296  and  _299
REMARK  128  A    between atoms: _299  and  _300
REMARK  129  A    between atoms: _300  and  _301
REMARK  130  A    between atoms: _301  and  _302
REMARK  131  A    between atoms: _311  and  _313
REMARK  132  A    between atoms: _313  and  _314
REMARK  133  A    between atoms: _313  and  _316
REMARK  134  A    between atoms: _316  and  _317
REMARK  135  A    between atoms: _317  and  _318
REMARK  136  A    between atoms: _323  and  _325
REMARK  137  A    between atoms: _325  and  _326
REMARK  138  A    between atoms: _325  and  _328
REMARK  139  A    between atoms: _328  and  _329
REMARK                            x       y       z     vdW  Elec       q    Type
REMARK                         _______ _______ _______ _____ _____    ______ ____
ROOT
ATOM      1  C   LYS A   1      35.104  29.586  11.195  0.00  0.00    +0.238 C 
ATOM      2  O   LYS A   1      33.921  29.702  10.853  0.00  0.00    -0.274 OA
ATOM      3  N   PHE A   2      36.118  29.889  10.386  0.00  0.00    -0.298 N 
ATOM      4  H   PHE A   2      37.099  29.794  10.717  0.00  0.00    +0.150 HD
ENDROOT
BRANCH   1   5
ATOM      5  CA  LYS A   1      35.462  29.067  12.587  0.00  0.00    +0.145 C 
BRANCH   5   6
ATOM      6  N   LYS A   1      36.565  28.107  12.502  0.00  0.00    -0.238 NA
ATOM      7  H   LYS A   1      37.456  28.311  12.998  0.00  0.00    +0.142 HD
ENDBRANCH   5   6
BRANCH   5   8
ATOM      8  CB  LYS A   1      35.823  30.232  13.511  0.00  0.00    +0.026 C 
BRANCH   8   9
ATOM      9  CG  LYS A   1      34.718  31.277  13.647  0.00  0.00    -0.000 C 
BRANCH   9  10
ATOM     10  CD  LYS A   1      35.112  32.370  14.620  0.00  0.00    -0.024 C 
BRANCH  10  11
ATOM     11  CE  LYS A   1      34.038  33.443  14.700  0.00  0.00    -0.086 C 
BRANCH  11  12
ATOM     12  NZ  LYS A   1      34.325  34.415  15.791  0.00  0.00    +0.380 N 
ATOM     13  HZ1 LYS A   1      34.360  33.913  16.701  0.00  0.00    -0.089 HD
ATOM     14  HZ2 LYS A   1      33.574  35.134  15.819  0.00  0.00    -0.089 HD
ATOM     15  HZ3 LYS A   1      35.240  34.875  15.612  0.00  0.00    -0.089 HD
ENDBRANCH  11  12
ENDBRANCH  10  11
ENDBRANCH   9  10
ENDBRANCH   8   9
ENDBRANCH   5   8
ENDBRANCH   1   5
BRANCH   3  16
ATOM     16  CA  PHE A   2      35.841  30.355   9.034  0.00  0.00    +0.141 C 
BRANCH  16  17
ATOM     17  C   PHE A   2      35.113  29.272   8.233  0.00  0.00    +0.227 C 
ATOM     18  O   PHE A   2      34.146  29.565   7.535  0.00  0.00    -0.286 OA
ENDBRANCH  16  17
BRANCH  16  19
ATOM     19  CB  PHE A   2      37.114  30.811   8.318  0.00  0.00    +0.054 C 
BRANCH  19  20
ATOM     20  CG  PHE A   2      36.880  31.243   6.894  0.00  0.00    -0.020 A 
ATOM     21  CD2 PHE A   2      36.665  32.583   6.586  0.00  0.00    -0.004 A 
ATOM     22  CE2 PHE A   2      36.439  32.984   5.271  0.00  0.00    -0.000 A 
ATOM     23  CZ  PHE A   2      36.411  32.034   4.249  0.00  0.00    -0.000 A 
ATOM     24  CE1 PHE A   2      36.607  30.687   4.550  0.00  0.00    -0.000 A 
ATOM     25  CD1 PHE A   2      36.847  30.299   5.864  0.00  0.00    -0.004 A 
ENDBRANCH  19  20
ENDBRANCH  16  19
ENDBRANCH   3  16
TORSDOF 11
REMARK  Name = ../refined-set-2016/3djv/3djv_pocket.pdb
REMARK  139 active torsions:
REMARK  status: ('A' for Active; 'I' for Inactive)
REMARK    1  A    between atoms: _1  and  _3
REMARK    2  A    between atoms: _3  and  _4
REMARK    3  A    between atoms: _3  and  _6
REMARK    4  A    between atoms: _6  and  _7
REMARK    5  A    between atoms: _7  and  _8
REMARK    6  A    between atoms: _10  and  _12
REMARK    7  A    between atoms: _12  and  _13
REMARK    8  A    between atoms: _12  and  _15
REMARK    9  A    between atoms: _15  and  _16
REMARK   10  A    between atoms: _16  and  _17
REMARK   11  A    between atoms: _19  and  _21
REMARK   12  A    between atoms: _21  and  _22
REMARK   13  A    between atoms: _21  and  _24
REMARK   14  A    between atoms: _24  and  _25
REMARK   15  A    between atoms: _25  and  _26
REMARK   16  A    between atoms: _26  and  _27
REMARK   17  A    between atoms: _27  and  _28
REMARK   18  A    between atoms: _32  and  _34
REMARK   19  A    between atoms: _34  and  _35
REMARK   20  A    between atoms: _34  and  _37
REMARK   21  A    between atoms: _37  and  _38
REMARK   22  A    between atoms: _38  and  _39
REMARK   23  A    between atoms: _39  and  _40
REMARK   24  A    between atoms: _40  and  _41
REMARK   25  A    between atoms: _46  and  _47
REMARK   26  A    between atoms: _52  and  _54
REMARK   27  A    between atoms: _54  and  _55
REMARK   28  A    between atoms: _54  and  _57
REMARK   29  A    between atoms: _60  and  _62
REMARK   30  A    between atoms: _62  and  _63
REMARK   31  A    between atoms: _62  and  _65
REMARK   32  A    between atoms: _65  and  _66
REMARK   33  A    between atoms: _71  and  _73
REMARK   34  A    between atoms: _73  and  _74
REMARK   35  A    between atoms: _73  and  _76
REMARK   36  A    between atoms: _76  and  _77
REMARK   37  A    between atoms: _80  and  _82
REMARK   38  A    between atoms: _82  and  _83
REMARK   39  A    between atoms: _82  and  _85
REMARK   40  A    between atoms: _85  and  _86
REMARK   41  A    between atoms: _92  and  _94
REMARK   42  A    between atoms: _94  and  _95
REMARK   43  A    between atoms: _94  and  _97
REMARK   44  A    between atoms: _97  and  _98
REMARK   45  A    between atoms: _98  and  _99
REMARK   46  A    between atoms: _99  and  _100
REMARK   47  A    between atoms: _100  and  _101
REMARK   48  A    between atoms: _105  and  _107
REMARK   49  A    between atoms: _107  and  _108
REMARK   50  A    between atoms: _107  and  _110
REMARK   51  A    between atoms: _110  and  _111
REMARK   52  A    between atoms: _116  and  _118
REMARK   53  A    between atoms: _118  and  _119
REMARK   54  A    between atoms: _118  and  _121
REMARK   55  A    between atoms: _121  and  _122
REMARK   56  A    between atoms: _125  and  _127
REMARK   57  A    between atoms: _127  and  _128
REMARK   58  A    between atoms: _127  and  _130
REMARK   59  A    between atoms: _130  and  _131
REMARK   60  A    between atoms: _134  and  _136
REMARK   61  A    between atoms: _136  and  _137
REMARK   62  A    between atoms: _136  and  _139
REMARK   63  A    between atoms: _139  and  _140
REMARK   64  A    between atoms: _143  and  _145
REMARK   65  A    between atoms: _145  and  _146
REMARK   66  A    between atoms: _145  and  _148
REMARK   67  A    between atoms: _150  and  _152
REMARK   68  A    between atoms: _152  and  _153
REMARK   69  A    between atoms: _152  and  _155
REMARK   70  A    between atoms: _155  and  _156
REMARK   71  A    between atoms: _156  and  _157
REMARK   72  A    between atoms: _157  and  _158
REMARK   73  A    between atoms: _167  and  _169
REMARK   74  A    between atoms: _169  and  _170
REMARK   75  A    between atoms: _169  and  _172
REMARK   76  A    between atoms: _172  and  _173
REMARK   77  A    between atoms: _173  and  _174
REMARK   78  A    between atoms: _174  and  _175
REMARK   79  A    between atoms: _175  and  _176
REMARK   80  A    between atoms: _180  and  _182
REMARK   81  A    between atoms: _182  and  _183
REMARK   82  A    between atoms: _182  and  _185
REMARK   83  A    between atoms: _185  and  _186
REMARK   84  A    between atoms: _191  and  _193
REMARK   85  A    between atoms: _193  and  _194
REMARK   86  A    between atoms: _193  and  _196
REMARK   87  A    between atoms: _196  and  _197
REMARK   88  A    between atoms: _200  and  _202
REMARK   89  A    between atoms: _202  and  _203
REMARK   90  A    between atoms: _206  and  _208
REMARK   91  A    between atoms: _208  and  _209
REMARK   92  A    between atoms: _208  and  _211
REMARK   93  A    between atoms: _214  and  _216
REMARK   94  A    between atoms: _216  and  _217
REMARK   95  A    between atoms: _216  and  _219
REMARK   96  A    between atoms: _219  and  _220
REMARK   97  A    between atoms: _225  and  _227
REMARK   98  A    between atoms: _227  and  _228
REMARK   99  A    between atoms: _227  and  _230
REMARK  100  A    between atoms: _230  and  _231
REMARK  101  A    between atoms: _237  and  _239
REMARK  102  A    between atoms: _239  and  _240
REMARK  103  A    between atoms: _239  and  _242
REMARK  104  A    between atoms: _242  and  _243
REMARK  105  A    between atoms: _246  and  _248
REMARK  106  A    between atoms: _248  and  _249
REMARK  107  A    between atoms: _252  and  _254
REMARK  108  A    between atoms: _254  and  _255
REMARK  109  A    between atoms: _254  and  _257
REMARK  110  A    between atoms: _257  and  _258
REMARK  111  A    between atoms: _260  and  _262
REMARK  112  A    between atoms: _262  and  _263
REMARK  113  A    between atoms: _262  and  _265
REMARK  114  A    between atoms: _269  and  _271
REMARK  115  A    between atoms: _271  and  _272
REMARK  116  A    between atoms: _271  and  _274
REMARK  117  A    between atoms: _274  and  _275
REMARK  118  A    between atoms: _275  and  _276
REMARK  119  A    between atoms: _276  and  _277
REMARK  120  A    between atoms: _277  and  _278
REMARK  121  A    between atoms: _282  and  _284
REMARK  122  A    between atoms: _284  and  _285
REMARK  123  A    between atoms: _284  and  _287
REMARK  124  A    between atoms: _287  and  _288
REMARK  125  A    between atoms: _294  and  _296
REMARK  126  A    between atoms: _296  and  _297
REMARK  127  A    between atoms: _296  and  _299
REMARK  128  A    between atoms: _299  and  _300
REMARK  129  A    between atoms: _300  and  _301
REMARK  130  A    between atoms: _301  and  _302
REMARK  131  A    between atoms: _311  and  _313
REMARK  132  A    between atoms: _313  and  _314
REMARK  133  A    between atoms: _313  and  _316
REMARK  134  A    between atoms: _316  and  _317
REMARK  135  A    between atoms: _317  and  _318
REMARK  136  A    between atoms: _323  and  _325
REMARK  137  A    between atoms: _325  and  _326
REMARK  138  A    between atoms: _325  and  _328
REMARK  139  A    between atoms: _328  and  _329
REMARK                            x       y       z     vdW  Elec       q    Type
REMARK                         _______ _______ _______ _____ _____    ______ ____
ROOT
ATOM      1  CA  GLN A   2      30.638  30.264   9.205  0.00  0.00    +0.149 C 
ENDROOT
BRANCH   1   3
ATOM      2  C   ARG A   1      30.960  27.885   9.448  0.00  0.00    +0.238 C 
ATOM      3  N   GLN A   2      31.465  29.111   9.508  0.00  0.00    -0.297 N 
ATOM      4  H   GLN A   2      32.461  29.246   9.774  0.00  0.00    +0.150 HD
ATOM      5  O   ARG A   1      29.811  27.655   9.061  0.00  0.00    -0.274 OA
BRANCH   2   6
ATOM      6  CA  ARG A   1      31.868  26.757   9.942  0.00  0.00    +0.145 C 
BRANCH   6   7
ATOM      7  N   ARG A   1      33.227  26.868   9.407  0.00  0.00    -0.238 NA
ATOM      8  H   ARG A   1      34.019  27.049  10.056  0.00  0.00    +0.142 HD
ENDBRANCH   6   7
BRANCH   6   9
ATOM      9  CB  ARG A   1      31.902  26.784  11.466  0.00  0.00    +0.030 C 
BRANCH   9  10
ATOM     10  CG  ARG A   1      30.512  26.802  12.090  0.00  0.00    +0.045 C 
BRANCH  10  11
ATOM     11  CD  ARG A   1      30.561  26.658  13.612  0.00  0.00    +0.174 C 
BRANCH  11  12
ATOM     12  NE  ARG A   1      31.380  27.685  14.264  0.00  0.00    -0.265 N 
ATOM     13  CZ  ARG A   1      30.964  28.911  14.570  0.00  0.00    +0.342 C 
ATOM     14  NH2 ARG A   1      31.793  29.755  15.183  0.00  0.00    -0.292 N 
ATOM     15 HH21 ARG A   1      31.473  30.715  15.425  0.00  0.00    +0.255 HD
ATOM     16 HH22 ARG A   1      32.760  29.454  15.420  0.00  0.00    +0.255 HD
ATOM     17  NH1 ARG A   1      29.732  29.307  14.268  0.00  0.00    -0.292 N 
ATOM     18 HH11 ARG A   1      29.420  30.268  14.513  0.00  0.00    +0.255 HD
ATOM     19 HH12 ARG A   1      29.080  28.656  13.787  0.00  0.00    +0.255 HD
ATOM     20  HE  ARG A   1      32.360  27.436  14.505  0.00  0.00    +0.259 HD
ENDBRANCH  11  12
ENDBRANCH  10  11
ENDBRANCH   9  10
ENDBRANCH   6   9
ENDBRANCH   2   6
ENDBRANCH   1   3
BRANCH   1  21
ATOM     21  C   GLN A   2      30.448  30.495   7.714  0.00  0.00    +0.241 C 
ATOM     22  O   GLN A   2      29.438  31.065   7.302  0.00  0.00    -0.273 OA
ATOM     23  N   HIS A   3      31.428  30.082   6.915  0.00  0.00    -0.298 N 
ATOM     24  H   HIS A   3      32.144  29.420   7.275  0.00  0.00    +0.150 HD
BRANCH  23  25
ATOM     25  CA  HIS A   3      31.504  30.554   5.532  0.00  0.00    +0.143 C 
BRANCH  25  26
ATOM     26  C   HIS A   3      31.663  29.515   4.437  0.00  0.00    +0.227 C 
ATOM     27  O   HIS A   3      31.585  29.871   3.261  0.00  0.00    -0.286 OA
ENDBRANCH  25  26
BRANCH  25  28
ATOM     28  CB  HIS A   3      32.624  31.588   5.392  0.00  0.00    +0.075 C 
BRANCH  28  29
ATOM     29  CG  HIS A   3      32.475  32.744   6.328  0.00  0.00    +0.082 A 
ATOM     30  CD2 HIS A   3      33.225  33.148   7.382  0.00  0.00    +0.115 A 
ATOM     31  NE2 HIS A   3      32.620  34.264   7.903  0.00  0.00    -0.221 NA
ATOM     32  CE1 HIS A   3      31.529  34.528   7.204  0.00  0.00    +0.199 A 
ATOM     33  ND1 HIS A   3      31.413  33.619   6.252  0.00  0.00    -0.227 NA
ENDBRANCH  28  29
ENDBRANCH  25  28
ENDBRANCH  23  25
ENDBRANCH   1  21
BRANCH   1  34
ATOM     34  CB  GLN A   2      31.246  31.523   9.820  0.00  0.00    +0.039 C 
BRANCH  34  35
ATOM     35  CG  GLN A   2      31.190  31.562  11.335  0.00  0.00    +0.087 C 
BRANCH  35  36
ATOM     36  CD  GLN A   2      31.576  32.924  11.884  0.00  0.00    +0.219 C 
ATOM     37  NE2 GLN A   2      31.195  33.184  13.116  0.00  0.00    -0.329 N 
ATOM     38 HE21 GLN A   2      30.655  32.476  13.654  0.00  0.00    +0.145 HD
ATOM     39 HE22 GLN A   2      31.434  34.097  13.552  0.00  0.00    +0.145 HD
ATOM     40  OE1 GLN A   2      32.218  33.730  11.205  0.00  0.00    -0.275 OA
ENDBRANCH  35  36
ENDBRANCH  34  35
ENDBRANCH   1  34
TORSDOF 15
REMARK  Name = ../refined-set-2016/3djv/3djv_pocket.pdb
REMARK  139 active torsions:
REMARK  status: ('A' for Active; 'I' for Inactive)
REMARK    1  A    between atoms: _1  and  _3
REMARK    2  A    between atoms: _3  and  _4
REMARK    3  A    between atoms: _3  and  _6
REMARK    4  A    between atoms: _6  and  _7
REMARK    5  A    between atoms: _7  and  _8
REMARK    6  A    between atoms: _10  and  _12
REMARK    7  A    between atoms: _12  and  _13
REMARK    8  A    between atoms: _12  and  _15
REMARK    9  A    between atoms: _15  and  _16
REMARK   10  A    between atoms: _16  and  _17
REMARK   11  A    between atoms: _19  and  _21
REMARK   12  A    between atoms: _21  and  _22
REMARK   13  A    between atoms: _21  and  _24
REMARK   14  A    between atoms: _24  and  _25
REMARK   15  A    between atoms: _25  and  _26
REMARK   16  A    between atoms: _26  and  _27
REMARK   17  A    between atoms: _27  and  _28
REMARK   18  A    between atoms: _32  and  _34
REMARK   19  A    between atoms: _34  and  _35
REMARK   20  A    between atoms: _34  and  _37
REMARK   21  A    between atoms: _37  and  _38
REMARK   22  A    between atoms: _38  and  _39
REMARK   23  A    between atoms: _39  and  _40
REMARK   24  A    between atoms: _40  and  _41
REMARK   25  A    between atoms: _46  and  _47
REMARK   26  A    between atoms: _52  and  _54
REMARK   27  A    between atoms: _54  and  _55
REMARK   28  A    between atoms: _54  and  _57
REMARK   29  A    between atoms: _60  and  _62
REMARK   30  A    between atoms: _62  and  _63
REMARK   31  A    between atoms: _62  and  _65
REMARK   32  A    between atoms: _65  and  _66
REMARK   33  A    between atoms: _71  and  _73
REMARK   34  A    between atoms: _73  and  _74
REMARK   35  A    between atoms: _73  and  _76
REMARK   36  A    between atoms: _76  and  _77
REMARK   37  A    between atoms: _80  and  _82
REMARK   38  A    between atoms: _82  and  _83
REMARK   39  A    between atoms: _82  and  _85
REMARK   40  A    between atoms: _85  and  _86
REMARK   41  A    between atoms: _92  and  _94
REMARK   42  A    between atoms: _94  and  _95
REMARK   43  A    between atoms: _94  and  _97
REMARK   44  A    between atoms: _97  and  _98
REMARK   45  A    between atoms: _98  and  _99
REMARK   46  A    between atoms: _99  and  _100
REMARK   47  A    between atoms: _100  and  _101
REMARK   48  A    between atoms: _105  and  _107
REMARK   49  A    between atoms: _107  and  _108
REMARK   50  A    between atoms: _107  and  _110
REMARK   51  A    between atoms: _110  and  _111
REMARK   52  A    between atoms: _116  and  _118
REMARK   53  A    between atoms: _118  and  _119
REMARK   54  A    between atoms: _118  and  _121
REMARK   55  A    between atoms: _121  and  _122
REMARK   56  A    between atoms: _125  and  _127
REMARK   57  A    between atoms: _127  and  _128
REMARK   58  A    between atoms: _127  and  _130
REMARK   59  A    between atoms: _130  and  _131
REMARK   60  A    between atoms: _134  and  _136
REMARK   61  A    between atoms: _136  and  _137
REMARK   62  A    between atoms: _136  and  _139
REMARK   63  A    between atoms: _139  and  _140
REMARK   64  A    between atoms: _143  and  _145
REMARK   65  A    between atoms: _145  and  _146
REMARK   66  A    between atoms: _145  and  _148
REMARK   67  A    between atoms: _150  and  _152
REMARK   68  A    between atoms: _152  and  _153
REMARK   69  A    between atoms: _152  and  _155
REMARK   70  A    between atoms: _155  and  _156
REMARK   71  A    between atoms: _156  and  _157
REMARK   72  A    between atoms: _157  and  _158
REMARK   73  A    between atoms: _167  and  _169
REMARK   74  A    between atoms: _169  and  _170
REMARK   75  A    between atoms: _169  and  _172
REMARK   76  A    between atoms: _172  and  _173
REMARK   77  A    between atoms: _173  and  _174
REMARK   78  A    between atoms: _174  and  _175
REMARK   79  A    between atoms: _175  and  _176
REMARK   80  A    between atoms: _180  and  _182
REMARK   81  A    between atoms: _182  and  _183
REMARK   82  A    between atoms: _182  and  _185
REMARK   83  A    between atoms: _185  and  _186
REMARK   84  A    between atoms: _191  and  _193
REMARK   85  A    between atoms: _193  and  _194
REMARK   86  A    between atoms: _193  and  _196
REMARK   87  A    between atoms: _196  and  _197
REMARK   88  A    between atoms: _200  and  _202
REMARK   89  A    between atoms: _202  and  _203
REMARK   90  A    between atoms: _206  and  _208
REMARK   91  A    between atoms: _208  and  _209
REMARK   92  A    between atoms: _208  and  _211
REMARK   93  A    between atoms: _214  and  _216
REMARK   94  A    between atoms: _216  and  _217
REMARK   95  A    between atoms: _216  and  _219
REMARK   96  A    between atoms: _219  and  _220
REMARK   97  A    between atoms: _225  and  _227
REMARK   98  A    between atoms: _227  and  _228
REMARK   99  A    between atoms: _227  and  _230
REMARK  100  A    between atoms: _230  and  _231
REMARK  101  A    between atoms: _237  and  _239
REMARK  102  A    between atoms: _239  and  _240
REMARK  103  A    between atoms: _239  and  _242
REMARK  104  A    between atoms: _242  and  _243
REMARK  105  A    between atoms: _246  and  _248
REMARK  106  A    between atoms: _248  and  _249
REMARK  107  A    between atoms: _252  and  _254
REMARK  108  A    between atoms: _254  and  _255
REMARK  109  A    between atoms: _254  and  _257
REMARK  110  A    between atoms: _257  and  _258
REMARK  111  A    between atoms: _260  and  _262
REMARK  112  A    between atoms: _262  and  _263
REMARK  113  A    between atoms: _262  and  _265
REMARK  114  A    between atoms: _269  and  _271
REMARK  115  A    between atoms: _271  and  _272
REMARK  116  A    between atoms: _271  and  _274
REMARK  117  A    between atoms: _274  and  _275
REMARK  118  A    between atoms: _275  and  _276
REMARK  119  A    between atoms: _276  and  _277
REMARK  120  A    between atoms: _277  and  _278
REMARK  121  A    between atoms: _282  and  _284
REMARK  122  A    between atoms: _284  and  _285
REMARK  123  A    between atoms: _284  and  _287
REMARK  124  A    between atoms: _287  and  _288
REMARK  125  A    between atoms: _294  and  _296
REMARK  126  A    between atoms: _296  and  _297
REMARK  127  A    between atoms: _296  and  _299
REMARK  128  A    between atoms: _299  and  _300
REMARK  129  A    between atoms: _300  and  _301
REMARK  130  A    between atoms: _301  and  _302
REMARK  131  A    between atoms: _311  and  _313
REMARK  132  A    between atoms: _313  and  _314
REMARK  133  A    between atoms: _313  and  _316
REMARK  134  A    between atoms: _316  and  _317
REMARK  135  A    between atoms: _317  and  _318
REMARK  136  A    between atoms: _323  and  _325
REMARK  137  A    between atoms: _325  and  _326
REMARK  138  A    between atoms: _325  and  _328
REMARK  139  A    between atoms: _328  and  _329
REMARK                            x       y       z     vdW  Elec       q    Type
REMARK                         _______ _______ _______ _____ _____    ______ ____
ROOT
ATOM      1  O   HOH     1      26.946  40.245  10.245  0.00  0.00    +0.000 OA
ENDROOT
TORSDOF 0
REMARK  Name = ../refined-set-2016/3djv/3djv_pocket.pdb
REMARK  139 active torsions:
REMARK  status: ('A' for Active; 'I' for Inactive)
REMARK    1  A    between atoms: _1  and  _3
REMARK    2  A    between atoms: _3  and  _4
REMARK    3  A    between atoms: _3  and  _6
REMARK    4  A    between atoms: _6  and  _7
REMARK    5  A    between atoms: _7  and  _8
REMARK    6  A    between atoms: _10  and  _12
REMARK    7  A    between atoms: _12  and  _13
REMARK    8  A    between atoms: _12  and  _15
REMARK    9  A    between atoms: _15  and  _16
REMARK   10  A    between atoms: _16  and  _17
REMARK   11  A    between atoms: _19  and  _21
REMARK   12  A    between atoms: _21  and  _22
REMARK   13  A    between atoms: _21  and  _24
REMARK   14  A    between atoms: _24  and  _25
REMARK   15  A    between atoms: _25  and  _26
REMARK   16  A    between atoms: _26  and  _27
REMARK   17  A    between atoms: _27  and  _28
REMARK   18  A    between atoms: _32  and  _34
REMARK   19  A    between atoms: _34  and  _35
REMARK   20  A    between atoms: _34  and  _37
REMARK   21  A    between atoms: _37  and  _38
REMARK   22  A    between atoms: _38  and  _39
REMARK   23  A    between atoms: _39  and  _40
REMARK   24  A    between atoms: _40  and  _41
REMARK   25  A    between atoms: _46  and  _47
REMARK   26  A    between atoms: _52  and  _54
REMARK   27  A    between atoms: _54  and  _55
REMARK   28  A    between atoms: _54  and  _57
REMARK   29  A    between atoms: _60  and  _62
REMARK   30  A    between atoms: _62  and  _63
REMARK   31  A    between atoms: _62  and  _65
REMARK   32  A    between atoms: _65  and  _66
REMARK   33  A    between atoms: _71  and  _73
REMARK   34  A    between atoms: _73  and  _74
REMARK   35  A    between atoms: _73  and  _76
REMARK   36  A    between atoms: _76  and  _77
REMARK   37  A    between atoms: _80  and  _82
REMARK   38  A    between atoms: _82  and  _83
REMARK   39  A    between atoms: _82  and  _85
REMARK   40  A    between atoms: _85  and  _86
REMARK   41  A    between atoms: _92  and  _94
REMARK   42  A    between atoms: _94  and  _95
REMARK   43  A    between atoms: _94  and  _97
REMARK   44  A    between atoms: _97  and  _98
REMARK   45  A    between atoms: _98  and  _99
REMARK   46  A    between atoms: _99  and  _100
REMARK   47  A    between atoms: _100  and  _101
REMARK   48  A    between atoms: _105  and  _107
REMARK   49  A    between atoms: _107  and  _108
REMARK   50  A    between atoms: _107  and  _110
REMARK   51  A    between atoms: _110  and  _111
REMARK   52  A    between atoms: _116  and  _118
REMARK   53  A    between atoms: _118  and  _119
REMARK   54  A    between atoms: _118  and  _121
REMARK   55  A    between atoms: _121  and  _122
REMARK   56  A    between atoms: _125  and  _127
REMARK   57  A    between atoms: _127  and  _128
REMARK   58  A    between atoms: _127  and  _130
REMARK   59  A    between atoms: _130  and  _131
REMARK   60  A    between atoms: _134  and  _136
REMARK   61  A    between atoms: _136  and  _137
REMARK   62  A    between atoms: _136  and  _139
REMARK   63  A    between atoms: _139  and  _140
REMARK   64  A    between atoms: _143  and  _145
REMARK   65  A    between atoms: _145  and  _146
REMARK   66  A    between atoms: _145  and  _148
REMARK   67  A    between atoms: _150  and  _152
REMARK   68  A    between atoms: _152  and  _153
REMARK   69  A    between atoms: _152  and  _155
REMARK   70  A    between atoms: _155  and  _156
REMARK   71  A    between atoms: _156  and  _157
REMARK   72  A    between atoms: _157  and  _158
REMARK   73  A    between atoms: _167  and  _169
REMARK   74  A    between atoms: _169  and  _170
REMARK   75  A    between atoms: _169  and  _172
REMARK   76  A    between atoms: _172  and  _173
REMARK   77  A    between atoms: _173  and  _174
REMARK   78  A    between atoms: _174  and  _175
REMARK   79  A    between atoms: _175  and  _176
REMARK   80  A    between atoms: _180  and  _182
REMARK   81  A    between atoms: _182  and  _183
REMARK   82  A    between atoms: _182  and  _185
REMARK   83  A    between atoms: _185  and  _186
REMARK   84  A    between atoms: _191  and  _193
REMARK   85  A    between atoms: _193  and  _194
REMARK   86  A    between atoms: _193  and  _196
REMARK   87  A    between atoms: _196  and  _197
REMARK   88  A    between atoms: _200  and  _202
REMARK   89  A    between atoms: _202  and  _203
REMARK   90  A    between atoms: _206  and  _208
REMARK   91  A    between atoms: _208  and  _209
REMARK   92  A    between atoms: _208  and  _211
REMARK   93  A    between atoms: _214  and  _216
REMARK   94  A    between atoms: _216  and  _217
REMARK   95  A    between atoms: _216  and  _219
REMARK   96  A    between atoms: _219  and  _220
REMARK   97  A    between atoms: _225  and  _227
REMARK   98  A    between atoms: _227  and  _228
REMARK   99  A    between atoms: _227  and  _230
REMARK  100  A    between atoms: _230  and  _231
REMARK  101  A    between atoms: _237  and  _239
REMARK  102  A    between atoms: _239  and  _240
REMARK  103  A    between atoms: _239  and  _242
REMARK  104  A    between atoms: _242  and  _243
REMARK  105  A    between atoms: _246  and  _248
REMARK  106  A    between atoms: _248  and  _249
REMARK  107  A    between atoms: _252  and  _254
REMARK  108  A    between atoms: _254  and  _255
REMARK  109  A    between atoms: _254  and  _257
REMARK  110  A    between atoms: _257  and  _258
REMARK  111  A    between atoms: _260  and  _262
REMARK  112  A    between atoms: _262  and  _263
REMARK  113  A    between atoms: _262  and  _265
REMARK  114  A    between atoms: _269  and  _271
REMARK  115  A    between atoms: _271  and  _272
REMARK  116  A    between atoms: _271  and  _274
REMARK  117  A    between atoms: _274  and  _275
REMARK  118  A    between atoms: _275  and  _276
REMARK  119  A    between atoms: _276  and  _277
REMARK  120  A    between atoms: _277  and  _278
REMARK  121  A    between atoms: _282  and  _284
REMARK  122  A    between atoms: _284  and  _285
REMARK  123  A    between atoms: _284  and  _287
REMARK  124  A    between atoms: _287  and  _288
REMARK  125  A    between atoms: _294  and  _296
REMARK  126  A    between atoms: _296  and  _297
REMARK  127  A    between atoms: _296  and  _299
REMARK  128  A    between atoms: _299  and  _300
REMARK  129  A    between atoms: _300  and  _301
REMARK  130  A    between atoms: _301  and  _302
REMARK  131  A    between atoms: _311  and  _313
REMARK  132  A    between atoms: _313  and  _314
REMARK  133  A    between atoms: _313  and  _316
REMARK  134  A    between atoms: _316  and  _317
REMARK  135  A    between atoms: _317  and  _318
REMARK  136  A    between atoms: _323  and  _325
REMARK  137  A    between atoms: _325  and  _326
REMARK  138  A    between atoms: _325  and  _328
REMARK  139  A    between atoms: _328  and  _329
REMARK                            x       y       z     vdW  Elec       q    Type
REMARK                         _______ _______ _______ _____ _____    ______ ____
ROOT
ATOM      1  O   HOH     1      37.147  43.969   8.201  0.00  0.00    +0.000 OA
ENDROOT
TORSDOF 0
REMARK  Name = ../refined-set-2016/3djv/3djv_pocket.pdb
REMARK  139 active torsions:
REMARK  status: ('A' for Active; 'I' for Inactive)
REMARK    1  A    between atoms: _1  and  _3
REMARK    2  A    between atoms: _3  and  _4
REMARK    3  A    between atoms: _3  and  _6
REMARK    4  A    between atoms: _6  and  _7
REMARK    5  A    between atoms: _7  and  _8
REMARK    6  A    between atoms: _10  and  _12
REMARK    7  A    between atoms: _12  and  _13
REMARK    8  A    between atoms: _12  and  _15
REMARK    9  A    between atoms: _15  and  _16
REMARK   10  A    between atoms: _16  and  _17
REMARK   11  A    between atoms: _19  and  _21
REMARK   12  A    between atoms: _21  and  _22
REMARK   13  A    between atoms: _21  and  _24
REMARK   14  A    between atoms: _24  and  _25
REMARK   15  A    between atoms: _25  and  _26
REMARK   16  A    between atoms: _26  and  _27
REMARK   17  A    between atoms: _27  and  _28
REMARK   18  A    between atoms: _32  and  _34
REMARK   19  A    between atoms: _34  and  _35
REMARK   20  A    between atoms: _34  and  _37
REMARK   21  A    between atoms: _37  and  _38
REMARK   22  A    between atoms: _38  and  _39
REMARK   23  A    between atoms: _39  and  _40
REMARK   24  A    between atoms: _40  and  _41
REMARK   25  A    between atoms: _46  and  _47
REMARK   26  A    between atoms: _52  and  _54
REMARK   27  A    between atoms: _54  and  _55
REMARK   28  A    between atoms: _54  and  _57
REMARK   29  A    between atoms: _60  and  _62
REMARK   30  A    between atoms: _62  and  _63
REMARK   31  A    between atoms: _62  and  _65
REMARK   32  A    between atoms: _65  and  _66
REMARK   33  A    between atoms: _71  and  _73
REMARK   34  A    between atoms: _73  and  _74
REMARK   35  A    between atoms: _73  and  _76
REMARK   36  A    between atoms: _76  and  _77
REMARK   37  A    between atoms: _80  and  _82
REMARK   38  A    between atoms: _82  and  _83
REMARK   39  A    between atoms: _82  and  _85
REMARK   40  A    between atoms: _85  and  _86
REMARK   41  A    between atoms: _92  and  _94
REMARK   42  A    between atoms: _94  and  _95
REMARK   43  A    between atoms: _94  and  _97
REMARK   44  A    between atoms: _97  and  _98
REMARK   45  A    between atoms: _98  and  _99
REMARK   46  A    between atoms: _99  and  _100
REMARK   47  A    between atoms: _100  and  _101
REMARK   48  A    between atoms: _105  and  _107
REMARK   49  A    between atoms: _107  and  _108
REMARK   50  A    between atoms: _107  and  _110
REMARK   51  A    between atoms: _110  and  _111
REMARK   52  A    between atoms: _116  and  _118
REMARK   53  A    between atoms: _118  and  _119
REMARK   54  A    between atoms: _118  and  _121
REMARK   55  A    between atoms: _121  and  _122
REMARK   56  A    between atoms: _125  and  _127
REMARK   57  A    between atoms: _127  and  _128
REMARK   58  A    between atoms: _127  and  _130
REMARK   59  A    between atoms: _130  and  _131
REMARK   60  A    between atoms: _134  and  _136
REMARK   61  A    between atoms: _136  and  _137
REMARK   62  A    between atoms: _136  and  _139
REMARK   63  A    between atoms: _139  and  _140
REMARK   64  A    between atoms: _143  and  _145
REMARK   65  A    between atoms: _145  and  _146
REMARK   66  A    between atoms: _145  and  _148
REMARK   67  A    between atoms: _150  and  _152
REMARK   68  A    between atoms: _152  and  _153
REMARK   69  A    between atoms: _152  and  _155
REMARK   70  A    between atoms: _155  and  _156
REMARK   71  A    between atoms: _156  and  _157
REMARK   72  A    between atoms: _157  and  _158
REMARK   73  A    between atoms: _167  and  _169
REMARK   74  A    between atoms: _169  and  _170
REMARK   75  A    between atoms: _169  and  _172
REMARK   76  A    between atoms: _172  and  _173
REMARK   77  A    between atoms: _173  and  _174
REMARK   78  A    between atoms: _174  and  _175
REMARK   79  A    between atoms: _175  and  _176
REMARK   80  A    between atoms: _180  and  _182
REMARK   81  A    between atoms: _182  and  _183
REMARK   82  A    between atoms: _182  and  _185
REMARK   83  A    between atoms: _185  and  _186
REMARK   84  A    between atoms: _191  and  _193
REMARK   85  A    between atoms: _193  and  _194
REMARK   86  A    between atoms: _193  and  _196
REMARK   87  A    between atoms: _196  and  _197
REMARK   88  A    between atoms: _200  and  _202
REMARK   89  A    between atoms: _202  and  _203
REMARK   90  A    between atoms: _206  and  _208
REMARK   91  A    between atoms: _208  and  _209
REMARK   92  A    between atoms: _208  and  _211
REMARK   93  A    between atoms: _214  and  _216
REMARK   94  A    between atoms: _216  and  _217
REMARK   95  A    between atoms: _216  and  _219
REMARK   96  A    between atoms: _219  and  _220
REMARK   97  A    between atoms: _225  and  _227
REMARK   98  A    between atoms: _227  and  _228
REMARK   99  A    between atoms: _227  and  _230
REMARK  100  A    between atoms: _230  and  _231
REMARK  101  A    between atoms: _237  and  _239
REMARK  102  A    between atoms: _239  and  _240
REMARK  103  A    between atoms: _239  and  _242
REMARK  104  A    between atoms: _242  and  _243
REMARK  105  A    between atoms: _246  and  _248
REMARK  106  A    between atoms: _248  and  _249
REMARK  107  A    between atoms: _252  and  _254
REMARK  108  A    between atoms: _254  and  _255
REMARK  109  A    between atoms: _254  and  _257
REMARK  110  A    between atoms: _257  and  _258
REMARK  111  A    between atoms: _260  and  _262
REMARK  112  A    between atoms: _262  and  _263
REMARK  113  A    between atoms: _262  and  _265
REMARK  114  A    between atoms: _269  and  _271
REMARK  115  A    between atoms: _271  and  _272
REMARK  116  A    between atoms: _271  and  _274
REMARK  117  A    between atoms: _274  and  _275
REMARK  118  A    between atoms: _275  and  _276
REMARK  119  A    between atoms: _276  and  _277
REMARK  120  A    between atoms: _277  and  _278
REMARK  121  A    between atoms: _282  and  _284
REMARK  122  A    between atoms: _284  and  _285
REMARK  123  A    between atoms: _284  and  _287
REMARK  124  A    between atoms: _287  and  _288
REMARK  125  A    between atoms: _294  and  _296
REMARK  126  A    between atoms: _296  and  _297
REMARK  127  A    between atoms: _296  and  _299
REMARK  128  A    between atoms: _299  and  _300
REMARK  129  A    between atoms: _300  and  _301
REMARK  130  A    between atoms: _301  and  _302
REMARK  131  A    between atoms: _311  and  _313
REMARK  132  A    between atoms: _313  and  _314
REMARK  133  A    between atoms: _313  and  _316
REMARK  134  A    between atoms: _316  and  _317
REMARK  135  A    between atoms: _317  and  _318
REMARK  136  A    between atoms: _323  and  _325
REMARK  137  A    between atoms: _325  and  _326
REMARK  138  A    between atoms: _325  and  _328
REMARK  139  A    between atoms: _328  and  _329
REMARK                            x       y       z     vdW  Elec       q    Type
REMARK                         _______ _______ _______ _____ _____    ______ ____
ROOT
ATOM      1  O   HOH     1      35.325  33.370  10.418  0.00  0.00    +0.000 OA
ENDROOT
TORSDOF 0
REMARK  Name = ../refined-set-2016/3djv/3djv_pocket.pdb
REMARK  139 active torsions:
REMARK  status: ('A' for Active; 'I' for Inactive)
REMARK    1  A    between atoms: _1  and  _3
REMARK    2  A    between atoms: _3  and  _4
REMARK    3  A    between atoms: _3  and  _6
REMARK    4  A    between atoms: _6  and  _7
REMARK    5  A    between atoms: _7  and  _8
REMARK    6  A    between atoms: _10  and  _12
REMARK    7  A    between atoms: _12  and  _13
REMARK    8  A    between atoms: _12  and  _15
REMARK    9  A    between atoms: _15  and  _16
REMARK   10  A    between atoms: _16  and  _17
REMARK   11  A    between atoms: _19  and  _21
REMARK   12  A    between atoms: _21  and  _22
REMARK   13  A    between atoms: _21  and  _24
REMARK   14  A    between atoms: _24  and  _25
REMARK   15  A    between atoms: _25  and  _26
REMARK   16  A    between atoms: _26  and  _27
REMARK   17  A    between atoms: _27  and  _28
REMARK   18  A    between atoms: _32  and  _34
REMARK   19  A    between atoms: _34  and  _35
REMARK   20  A    between atoms: _34  and  _37
REMARK   21  A    between atoms: _37  and  _38
REMARK   22  A    between atoms: _38  and  _39
REMARK   23  A    between atoms: _39  and  _40
REMARK   24  A    between atoms: _40  and  _41
REMARK   25  A    between atoms: _46  and  _47
REMARK   26  A    between atoms: _52  and  _54
REMARK   27  A    between atoms: _54  and  _55
REMARK   28  A    between atoms: _54  and  _57
REMARK   29  A    between atoms: _60  and  _62
REMARK   30  A    between atoms: _62  and  _63
REMARK   31  A    between atoms: _62  and  _65
REMARK   32  A    between atoms: _65  and  _66
REMARK   33  A    between atoms: _71  and  _73
REMARK   34  A    between atoms: _73  and  _74
REMARK   35  A    between atoms: _73  and  _76
REMARK   36  A    between atoms: _76  and  _77
REMARK   37  A    between atoms: _80  and  _82
REMARK   38  A    between atoms: _82  and  _83
REMARK   39  A    between atoms: _82  and  _85
REMARK   40  A    between atoms: _85  and  _86
REMARK   41  A    between atoms: _92  and  _94
REMARK   42  A    between atoms: _94  and  _95
REMARK   43  A    between atoms: _94  and  _97
REMARK   44  A    between atoms: _97  and  _98
REMARK   45  A    between atoms: _98  and  _99
REMARK   46  A    between atoms: _99  and  _100
REMARK   47  A    between atoms: _100  and  _101
REMARK   48  A    between atoms: _105  and  _107
REMARK   49  A    between atoms: _107  and  _108
REMARK   50  A    between atoms: _107  and  _110
REMARK   51  A    between atoms: _110  and  _111
REMARK   52  A    between atoms: _116  and  _118
REMARK   53  A    between atoms: _118  and  _119
REMARK   54  A    between atoms: _118  and  _121
REMARK   55  A    between atoms: _121  and  _122
REMARK   56  A    between atoms: _125  and  _127
REMARK   57  A    between atoms: _127  and  _128
REMARK   58  A    between atoms: _127  and  _130
REMARK   59  A    between atoms: _130  and  _131
REMARK   60  A    between atoms: _134  and  _136
REMARK   61  A    between atoms: _136  and  _137
REMARK   62  A    between atoms: _136  and  _139
REMARK   63  A    between atoms: _139  and  _140
REMARK   64  A    between atoms: _143  and  _145
REMARK   65  A    between atoms: _145  and  _146
REMARK   66  A    between atoms: _145  and  _148
REMARK   67  A    between atoms: _150  and  _152
REMARK   68  A    between atoms: _152  and  _153
REMARK   69  A    between atoms: _152  and  _155
REMARK   70  A    between atoms: _155  and  _156
REMARK   71  A    between atoms: _156  and  _157
REMARK   72  A    between atoms: _157  and  _158
REMARK   73  A    between atoms: _167  and  _169
REMARK   74  A    between atoms: _169  and  _170
REMARK   75  A    between atoms: _169  and  _172
REMARK   76  A    between atoms: _172  and  _173
REMARK   77  A    between atoms: _173  and  _174
REMARK   78  A    between atoms: _174  and  _175
REMARK   79  A    between atoms: _175  and  _176
REMARK   80  A    between atoms: _180  and  _182
REMARK   81  A    between atoms: _182  and  _183
REMARK   82  A    between atoms: _182  and  _185
REMARK   83  A    between atoms: _185  and  _186
REMARK   84  A    between atoms: _191  and  _193
REMARK   85  A    between atoms: _193  and  _194
REMARK   86  A    between atoms: _193  and  _196
REMARK   87  A    between atoms: _196  and  _197
REMARK   88  A    between atoms: _200  and  _202
REMARK   89  A    between atoms: _202  and  _203
REMARK   90  A    between atoms: _206  and  _208
REMARK   91  A    between atoms: _208  and  _209
REMARK   92  A    between atoms: _208  and  _211
REMARK   93  A    between atoms: _214  and  _216
REMARK   94  A    between atoms: _216  and  _217
REMARK   95  A    between atoms: _216  and  _219
REMARK   96  A    between atoms: _219  and  _220
REMARK   97  A    between atoms: _225  and  _227
REMARK   98  A    between atoms: _227  and  _228
REMARK   99  A    between atoms: _227  and  _230
REMARK  100  A    between atoms: _230  and  _231
REMARK  101  A    between atoms: _237  and  _239
REMARK  102  A    between atoms: _239  and  _240
REMARK  103  A    between atoms: _239  and  _242
REMARK  104  A    between atoms: _242  and  _243
REMARK  105  A    between atoms: _246  and  _248
REMARK  106  A    between atoms: _248  and  _249
REMARK  107  A    between atoms: _252  and  _254
REMARK  108  A    between atoms: _254  and  _255
REMARK  109  A    between atoms: _254  and  _257
REMARK  110  A    between atoms: _257  and  _258
REMARK  111  A    between atoms: _260  and  _262
REMARK  112  A    between atoms: _262  and  _263
REMARK  113  A    between atoms: _262  and  _265
REMARK  114  A    between atoms: _269  and  _271
REMARK  115  A    between atoms: _271  and  _272
REMARK  116  A    between atoms: _271  and  _274
REMARK  117  A    between atoms: _274  and  _275
REMARK  118  A    between atoms: _275  and  _276
REMARK  119  A    between atoms: _276  and  _277
REMARK  120  A    between atoms: _277  and  _278
REMARK  121  A    between atoms: _282  and  _284
REMARK  122  A    between atoms: _284  and  _285
REMARK  123  A    between atoms: _284  and  _287
REMARK  124  A    between atoms: _287  and  _288
REMARK  125  A    between atoms: _294  and  _296
REMARK  126  A    between atoms: _296  and  _297
REMARK  127  A    between atoms: _296  and  _299
REMARK  128  A    between atoms: _299  and  _300
REMARK  129  A    between atoms: _300  and  _301
REMARK  130  A    between atoms: _301  and  _302
REMARK  131  A    between atoms: _311  and  _313
REMARK  132  A    between atoms: _313  and  _314
REMARK  133  A    between atoms: _313  and  _316
REMARK  134  A    between atoms: _316  and  _317
REMARK  135  A    between atoms: _317  and  _318
REMARK  136  A    between atoms: _323  and  _325
REMARK  137  A    between atoms: _325  and  _326
REMARK  138  A    between atoms: _325  and  _328
REMARK  139  A    between atoms: _328  and  _329
REMARK                            x       y       z     vdW  Elec       q    Type
REMARK                         _______ _______ _______ _____ _____    ______ ____
ROOT
ATOM      1  O   HOH     1      30.279  42.761   1.190  0.00  0.00    +0.000 OA
ENDROOT
TORSDOF 0
REMARK  Name = ../refined-set-2016/3djv/3djv_pocket.pdb
REMARK  139 active torsions:
REMARK  status: ('A' for Active; 'I' for Inactive)
REMARK    1  A    between atoms: _1  and  _3
REMARK    2  A    between atoms: _3  and  _4
REMARK    3  A    between atoms: _3  and  _6
REMARK    4  A    between atoms: _6  and  _7
REMARK    5  A    between atoms: _7  and  _8
REMARK    6  A    between atoms: _10  and  _12
REMARK    7  A    between atoms: _12  and  _13
REMARK    8  A    between atoms: _12  and  _15
REMARK    9  A    between atoms: _15  and  _16
REMARK   10  A    between atoms: _16  and  _17
REMARK   11  A    between atoms: _19  and  _21
REMARK   12  A    between atoms: _21  and  _22
REMARK   13  A    between atoms: _21  and  _24
REMARK   14  A    between atoms: _24  and  _25
REMARK   15  A    between atoms: _25  and  _26
REMARK   16  A    between atoms: _26  and  _27
REMARK   17  A    between atoms: _27  and  _28
REMARK   18  A    between atoms: _32  and  _34
REMARK   19  A    between atoms: _34  and  _35
REMARK   20  A    between atoms: _34  and  _37
REMARK   21  A    between atoms: _37  and  _38
REMARK   22  A    between atoms: _38  and  _39
REMARK   23  A    between atoms: _39  and  _40
REMARK   24  A    between atoms: _40  and  _41
REMARK   25  A    between atoms: _46  and  _47
REMARK   26  A    between atoms: _52  and  _54
REMARK   27  A    between atoms: _54  and  _55
REMARK   28  A    between atoms: _54  and  _57
REMARK   29  A    between atoms: _60  and  _62
REMARK   30  A    between atoms: _62  and  _63
REMARK   31  A    between atoms: _62  and  _65
REMARK   32  A    between atoms: _65  and  _66
REMARK   33  A    between atoms: _71  and  _73
REMARK   34  A    between atoms: _73  and  _74
REMARK   35  A    between atoms: _73  and  _76
REMARK   36  A    between atoms: _76  and  _77
REMARK   37  A    between atoms: _80  and  _82
REMARK   38  A    between atoms: _82  and  _83
REMARK   39  A    between atoms: _82  and  _85
REMARK   40  A    between atoms: _85  and  _86
REMARK   41  A    between atoms: _92  and  _94
REMARK   42  A    between atoms: _94  and  _95
REMARK   43  A    between atoms: _94  and  _97
REMARK   44  A    between atoms: _97  and  _98
REMARK   45  A    between atoms: _98  and  _99
REMARK   46  A    between atoms: _99  and  _100
REMARK   47  A    between atoms: _100  and  _101
REMARK   48  A    between atoms: _105  and  _107
REMARK   49  A    between atoms: _107  and  _108
REMARK   50  A    between atoms: _107  and  _110
REMARK   51  A    between atoms: _110  and  _111
REMARK   52  A    between atoms: _116  and  _118
REMARK   53  A    between atoms: _118  and  _119
REMARK   54  A    between atoms: _118  and  _121
REMARK   55  A    between atoms: _121  and  _122
REMARK   56  A    between atoms: _125  and  _127
REMARK   57  A    between atoms: _127  and  _128
REMARK   58  A    between atoms: _127  and  _130
REMARK   59  A    between atoms: _130  and  _131
REMARK   60  A    between atoms: _134  and  _136
REMARK   61  A    between atoms: _136  and  _137
REMARK   62  A    between atoms: _136  and  _139
REMARK   63  A    between atoms: _139  and  _140
REMARK   64  A    between atoms: _143  and  _145
REMARK   65  A    between atoms: _145  and  _146
REMARK   66  A    between atoms: _145  and  _148
REMARK   67  A    between atoms: _150  and  _152
REMARK   68  A    between atoms: _152  and  _153
REMARK   69  A    between atoms: _152  and  _155
REMARK   70  A    between atoms: _155  and  _156
REMARK   71  A    between atoms: _156  and  _157
REMARK   72  A    between atoms: _157  and  _158
REMARK   73  A    between atoms: _167  and  _169
REMARK   74  A    between atoms: _169  and  _170
REMARK   75  A    between atoms: _169  and  _172
REMARK   76  A    between atoms: _172  and  _173
REMARK   77  A    between atoms: _173  and  _174
REMARK   78  A    between atoms: _174  and  _175
REMARK   79  A    between atoms: _175  and  _176
REMARK   80  A    between atoms: _180  and  _182
REMARK   81  A    between atoms: _182  and  _183
REMARK   82  A    between atoms: _182  and  _185
REMARK   83  A    between atoms: _185  and  _186
REMARK   84  A    between atoms: _191  and  _193
REMARK   85  A    between atoms: _193  and  _194
REMARK   86  A    between atoms: _193  and  _196
REMARK   87  A    between atoms: _196  and  _197
REMARK   88  A    between atoms: _200  and  _202
REMARK   89  A    between atoms: _202  and  _203
REMARK   90  A    between atoms: _206  and  _208
REMARK   91  A    between atoms: _208  and  _209
REMARK   92  A    between atoms: _208  and  _211
REMARK   93  A    between atoms: _214  and  _216
REMARK   94  A    between atoms: _216  and  _217
REMARK   95  A    between atoms: _216  and  _219
REMARK   96  A    between atoms: _219  and  _220
REMARK   97  A    between atoms: _225  and  _227
REMARK   98  A    between atoms: _227  and  _228
REMARK   99  A    between atoms: _227  and  _230
REMARK  100  A    between atoms: _230  and  _231
REMARK  101  A    between atoms: _237  and  _239
REMARK  102  A    between atoms: _239  and  _240
REMARK  103  A    between atoms: _239  and  _242
REMARK  104  A    between atoms: _242  and  _243
REMARK  105  A    between atoms: _246  and  _248
REMARK  106  A    between atoms: _248  and  _249
REMARK  107  A    between atoms: _252  and  _254
REMARK  108  A    between atoms: _254  and  _255
REMARK  109  A    between atoms: _254  and  _257
REMARK  110  A    between atoms: _257  and  _258
REMARK  111  A    between atoms: _260  and  _262
REMARK  112  A    between atoms: _262  and  _263
REMARK  113  A    between atoms: _262  and  _265
REMARK  114  A    between atoms: _269  and  _271
REMARK  115  A    between atoms: _271  and  _272
REMARK  116  A    between atoms: _271  and  _274
REMARK  117  A    between atoms: _274  and  _275
REMARK  118  A    between atoms: _275  and  _276
REMARK  119  A    between atoms: _276  and  _277
REMARK  120  A    between atoms: _277  and  _278
REMARK  121  A    between atoms: _282  and  _284
REMARK  122  A    between atoms: _284  and  _285
REMARK  123  A    between atoms: _284  and  _287
REMARK  124  A    between atoms: _287  and  _288
REMARK  125  A    between atoms: _294  and  _296
REMARK  126  A    between atoms: _296  and  _297
REMARK  127  A    between atoms: _296  and  _299
REMARK  128  A    between atoms: _299  and  _300
REMARK  129  A    between atoms: _300  and  _301
REMARK  130  A    between atoms: _301  and  _302
REMARK  131  A    between atoms: _311  and  _313
REMARK  132  A    between atoms: _313  and  _314
REMARK  133  A    between atoms: _313  and  _316
REMARK  134  A    between atoms: _316  and  _317
REMARK  135  A    between atoms: _317  and  _318
REMARK  136  A    between atoms: _323  and  _325
REMARK  137  A    between atoms: _325  and  _326
REMARK  138  A    between atoms: _325  and  _328
REMARK  139  A    between atoms: _328  and  _329
REMARK                            x       y       z     vdW  Elec       q    Type
REMARK                         _______ _______ _______ _____ _____    ______ ____
ROOT
ATOM      1  O   HOH     1      28.196  40.206  12.667  0.00  0.00    +0.000 OA
ENDROOT
TORSDOF 0
REMARK  Name = ../refined-set-2016/3djv/3djv_pocket.pdb
REMARK  139 active torsions:
REMARK  status: ('A' for Active; 'I' for Inactive)
REMARK    1  A    between atoms: _1  and  _3
REMARK    2  A    between atoms: _3  and  _4
REMARK    3  A    between atoms: _3  and  _6
REMARK    4  A    between atoms: _6  and  _7
REMARK    5  A    between atoms: _7  and  _8
REMARK    6  A    between atoms: _10  and  _12
REMARK    7  A    between atoms: _12  and  _13
REMARK    8  A    between atoms: _12  and  _15
REMARK    9  A    between atoms: _15  and  _16
REMARK   10  A    between atoms: _16  and  _17
REMARK   11  A    between atoms: _19  and  _21
REMARK   12  A    between atoms: _21  and  _22
REMARK   13  A    between atoms: _21  and  _24
REMARK   14  A    between atoms: _24  and  _25
REMARK   15  A    between atoms: _25  and  _26
REMARK   16  A    between atoms: _26  and  _27
REMARK   17  A    between atoms: _27  and  _28
REMARK   18  A    between atoms: _32  and  _34
REMARK   19  A    between atoms: _34  and  _35
REMARK   20  A    between atoms: _34  and  _37
REMARK   21  A    between atoms: _37  and  _38
REMARK   22  A    between atoms: _38  and  _39
REMARK   23  A    between atoms: _39  and  _40
REMARK   24  A    between atoms: _40  and  _41
REMARK   25  A    between atoms: _46  and  _47
REMARK   26  A    between atoms: _52  and  _54
REMARK   27  A    between atoms: _54  and  _55
REMARK   28  A    between atoms: _54  and  _57
REMARK   29  A    between atoms: _60  and  _62
REMARK   30  A    between atoms: _62  and  _63
REMARK   31  A    between atoms: _62  and  _65
REMARK   32  A    between atoms: _65  and  _66
REMARK   33  A    between atoms: _71  and  _73
REMARK   34  A    between atoms: _73  and  _74
REMARK   35  A    between atoms: _73  and  _76
REMARK   36  A    between atoms: _76  and  _77
REMARK   37  A    between atoms: _80  and  _82
REMARK   38  A    between atoms: _82  and  _83
REMARK   39  A    between atoms: _82  and  _85
REMARK   40  A    between atoms: _85  and  _86
REMARK   41  A    between atoms: _92  and  _94
REMARK   42  A    between atoms: _94  and  _95
REMARK   43  A    between atoms: _94  and  _97
REMARK   44  A    between atoms: _97  and  _98
REMARK   45  A    between atoms: _98  and  _99
REMARK   46  A    between atoms: _99  and  _100
REMARK   47  A    between atoms: _100  and  _101
REMARK   48  A    between atoms: _105  and  _107
REMARK   49  A    between atoms: _107  and  _108
REMARK   50  A    between atoms: _107  and  _110
REMARK   51  A    between atoms: _110  and  _111
REMARK   52  A    between atoms: _116  and  _118
REMARK   53  A    between atoms: _118  and  _119
REMARK   54  A    between atoms: _118  and  _121
REMARK   55  A    between atoms: _121  and  _122
REMARK   56  A    between atoms: _125  and  _127
REMARK   57  A    between atoms: _127  and  _128
REMARK   58  A    between atoms: _127  and  _130
REMARK   59  A    between atoms: _130  and  _131
REMARK   60  A    between atoms: _134  and  _136
REMARK   61  A    between atoms: _136  and  _137
REMARK   62  A    between atoms: _136  and  _139
REMARK   63  A    between atoms: _139  and  _140
REMARK   64  A    between atoms: _143  and  _145
REMARK   65  A    between atoms: _145  and  _146
REMARK   66  A    between atoms: _145  and  _148
REMARK   67  A    between atoms: _150  and  _152
REMARK   68  A    between atoms: _152  and  _153
REMARK   69  A    between atoms: _152  and  _155
REMARK   70  A    between atoms: _155  and  _156
REMARK   71  A    between atoms: _156  and  _157
REMARK   72  A    between atoms: _157  and  _158
REMARK   73  A    between atoms: _167  and  _169
REMARK   74  A    between atoms: _169  and  _170
REMARK   75  A    between atoms: _169  and  _172
REMARK   76  A    between atoms: _172  and  _173
REMARK   77  A    between atoms: _173  and  _174
REMARK   78  A    between atoms: _174  and  _175
REMARK   79  A    between atoms: _175  and  _176
REMARK   80  A    between atoms: _180  and  _182
REMARK   81  A    between atoms: _182  and  _183
REMARK   82  A    between atoms: _182  and  _185
REMARK   83  A    between atoms: _185  and  _186
REMARK   84  A    between atoms: _191  and  _193
REMARK   85  A    between atoms: _193  and  _194
REMARK   86  A    between atoms: _193  and  _196
REMARK   87  A    between atoms: _196  and  _197
REMARK   88  A    between atoms: _200  and  _202
REMARK   89  A    between atoms: _202  and  _203
REMARK   90  A    between atoms: _206  and  _208
REMARK   91  A    between atoms: _208  and  _209
REMARK   92  A    between atoms: _208  and  _211
REMARK   93  A    between atoms: _214  and  _216
REMARK   94  A    between atoms: _216  and  _217
REMARK   95  A    between atoms: _216  and  _219
REMARK   96  A    between atoms: _219  and  _220
REMARK   97  A    between atoms: _225  and  _227
REMARK   98  A    between atoms: _227  and  _228
REMARK   99  A    between atoms: _227  and  _230
REMARK  100  A    between atoms: _230  and  _231
REMARK  101  A    between atoms: _237  and  _239
REMARK  102  A    between atoms: _239  and  _240
REMARK  103  A    between atoms: _239  and  _242
REMARK  104  A    between atoms: _242  and  _243
REMARK  105  A    between atoms: _246  and  _248
REMARK  106  A    between atoms: _248  and  _249
REMARK  107  A    between atoms: _252  and  _254
REMARK  108  A    between atoms: _254  and  _255
REMARK  109  A    between atoms: _254  and  _257
REMARK  110  A    between atoms: _257  and  _258
REMARK  111  A    between atoms: _260  and  _262
REMARK  112  A    between atoms: _262  and  _263
REMARK  113  A    between atoms: _262  and  _265
REMARK  114  A    between atoms: _269  and  _271
REMARK  115  A    between atoms: _271  and  _272
REMARK  116  A    between atoms: _271  and  _274
REMARK  117  A    between atoms: _274  and  _275
REMARK  118  A    between atoms: _275  and  _276
REMARK  119  A    between atoms: _276  and  _277
REMARK  120  A    between atoms: _277  and  _278
REMARK  121  A    between atoms: _282  and  _284
REMARK  122  A    between atoms: _284  and  _285
REMARK  123  A    between atoms: _284  and  _287
REMARK  124  A    between atoms: _287  and  _288
REMARK  125  A    between atoms: _294  and  _296
REMARK  126  A    between atoms: _296  and  _297
REMARK  127  A    between atoms: _296  and  _299
REMARK  128  A    between atoms: _299  and  _300
REMARK  129  A    between atoms: _300  and  _301
REMARK  130  A    between atoms: _301  and  _302
REMARK  131  A    between atoms: _311  and  _313
REMARK  132  A    between atoms: _313  and  _314
REMARK  133  A    between atoms: _313  and  _316
REMARK  134  A    between atoms: _316  and  _317
REMARK  135  A    between atoms: _317  and  _318
REMARK  136  A    between atoms: _323  and  _325
REMARK  137  A    between atoms: _325  and  _326
REMARK  138  A    between atoms: _325  and  _328
REMARK  139  A    between atoms: _328  and  _329
REMARK                            x       y       z     vdW  Elec       q    Type
REMARK                         _______ _______ _______ _____ _____    ______ ____
ROOT
ATOM      1  O   HOH     1      29.080  44.485  -3.548  0.00  0.00    +0.000 OA
ENDROOT
TORSDOF 0
REMARK  Name = ../refined-set-2016/3djv/3djv_pocket.pdb
REMARK  139 active torsions:
REMARK  status: ('A' for Active; 'I' for Inactive)
REMARK    1  A    between atoms: _1  and  _3
REMARK    2  A    between atoms: _3  and  _4
REMARK    3  A    between atoms: _3  and  _6
REMARK    4  A    between atoms: _6  and  _7
REMARK    5  A    between atoms: _7  and  _8
REMARK    6  A    between atoms: _10  and  _12
REMARK    7  A    between atoms: _12  and  _13
REMARK    8  A    between atoms: _12  and  _15
REMARK    9  A    between atoms: _15  and  _16
REMARK   10  A    between atoms: _16  and  _17
REMARK   11  A    between atoms: _19  and  _21
REMARK   12  A    between atoms: _21  and  _22
REMARK   13  A    between atoms: _21  and  _24
REMARK   14  A    between atoms: _24  and  _25
REMARK   15  A    between atoms: _25  and  _26
REMARK   16  A    between atoms: _26  and  _27
REMARK   17  A    between atoms: _27  and  _28
REMARK   18  A    between atoms: _32  and  _34
REMARK   19  A    between atoms: _34  and  _35
REMARK   20  A    between atoms: _34  and  _37
REMARK   21  A    between atoms: _37  and  _38
REMARK   22  A    between atoms: _38  and  _39
REMARK   23  A    between atoms: _39  and  _40
REMARK   24  A    between atoms: _40  and  _41
REMARK   25  A    between atoms: _46  and  _47
REMARK   26  A    between atoms: _52  and  _54
REMARK   27  A    between atoms: _54  and  _55
REMARK   28  A    between atoms: _54  and  _57
REMARK   29  A    between atoms: _60  and  _62
REMARK   30  A    between atoms: _62  and  _63
REMARK   31  A    between atoms: _62  and  _65
REMARK   32  A    between atoms: _65  and  _66
REMARK   33  A    between atoms: _71  and  _73
REMARK   34  A    between atoms: _73  and  _74
REMARK   35  A    between atoms: _73  and  _76
REMARK   36  A    between atoms: _76  and  _77
REMARK   37  A    between atoms: _80  and  _82
REMARK   38  A    between atoms: _82  and  _83
REMARK   39  A    between atoms: _82  and  _85
REMARK   40  A    between atoms: _85  and  _86
REMARK   41  A    between atoms: _92  and  _94
REMARK   42  A    between atoms: _94  and  _95
REMARK   43  A    between atoms: _94  and  _97
REMARK   44  A    between atoms: _97  and  _98
REMARK   45  A    between atoms: _98  and  _99
REMARK   46  A    between atoms: _99  and  _100
REMARK   47  A    between atoms: _100  and  _101
REMARK   48  A    between atoms: _105  and  _107
REMARK   49  A    between atoms: _107  and  _108
REMARK   50  A    between atoms: _107  and  _110
REMARK   51  A    between atoms: _110  and  _111
REMARK   52  A    between atoms: _116  and  _118
REMARK   53  A    between atoms: _118  and  _119
REMARK   54  A    between atoms: _118  and  _121
REMARK   55  A    between atoms: _121  and  _122
REMARK   56  A    between atoms: _125  and  _127
REMARK   57  A    between atoms: _127  and  _128
REMARK   58  A    between atoms: _127  and  _130
REMARK   59  A    between atoms: _130  and  _131
REMARK   60  A    between atoms: _134  and  _136
REMARK   61  A    between atoms: _136  and  _137
REMARK   62  A    between atoms: _136  and  _139
REMARK   63  A    between atoms: _139  and  _140
REMARK   64  A    between atoms: _143  and  _145
REMARK   65  A    between atoms: _145  and  _146
REMARK   66  A    between atoms: _145  and  _148
REMARK   67  A    between atoms: _150  and  _152
REMARK   68  A    between atoms: _152  and  _153
REMARK   69  A    between atoms: _152  and  _155
REMARK   70  A    between atoms: _155  and  _156
REMARK   71  A    between atoms: _156  and  _157
REMARK   72  A    between atoms: _157  and  _158
REMARK   73  A    between atoms: _167  and  _169
REMARK   74  A    between atoms: _169  and  _170
REMARK   75  A    between atoms: _169  and  _172
REMARK   76  A    between atoms: _172  and  _173
REMARK   77  A    between atoms: _173  and  _174
REMARK   78  A    between atoms: _174  and  _175
REMARK   79  A    between atoms: _175  and  _176
REMARK   80  A    between atoms: _180  and  _182
REMARK   81  A    between atoms: _182  and  _183
REMARK   82  A    between atoms: _182  and  _185
REMARK   83  A    between atoms: _185  and  _186
REMARK   84  A    between atoms: _191  and  _193
REMARK   85  A    between atoms: _193  and  _194
REMARK   86  A    between atoms: _193  and  _196
REMARK   87  A    between atoms: _196  and  _197
REMARK   88  A    between atoms: _200  and  _202
REMARK   89  A    between atoms: _202  and  _203
REMARK   90  A    between atoms: _206  and  _208
REMARK   91  A    between atoms: _208  and  _209
REMARK   92  A    between atoms: _208  and  _211
REMARK   93  A    between atoms: _214  and  _216
REMARK   94  A    between atoms: _216  and  _217
REMARK   95  A    between atoms: _216  and  _219
REMARK   96  A    between atoms: _219  and  _220
REMARK   97  A    between atoms: _225  and  _227
REMARK   98  A    between atoms: _227  and  _228
REMARK   99  A    between atoms: _227  and  _230
REMARK  100  A    between atoms: _230  and  _231
REMARK  101  A    between atoms: _237  and  _239
REMARK  102  A    between atoms: _239  and  _240
REMARK  103  A    between atoms: _239  and  _242
REMARK  104  A    between atoms: _242  and  _243
REMARK  105  A    between atoms: _246  and  _248
REMARK  106  A    between atoms: _248  and  _249
REMARK  107  A    between atoms: _252  and  _254
REMARK  108  A    between atoms: _254  and  _255
REMARK  109  A    between atoms: _254  and  _257
REMARK  110  A    between atoms: _257  and  _258
REMARK  111  A    between atoms: _260  and  _262
REMARK  112  A    between atoms: _262  and  _263
REMARK  113  A    between atoms: _262  and  _265
REMARK  114  A    between atoms: _269  and  _271
REMARK  115  A    between atoms: _271  and  _272
REMARK  116  A    between atoms: _271  and  _274
REMARK  117  A    between atoms: _274  and  _275
REMARK  118  A    between atoms: _275  and  _276
REMARK  119  A    between atoms: _276  and  _277
REMARK  120  A    between atoms: _277  and  _278
REMARK  121  A    between atoms: _282  and  _284
REMARK  122  A    between atoms: _284  and  _285
REMARK  123  A    between atoms: _284  and  _287
REMARK  124  A    between atoms: _287  and  _288
REMARK  125  A    between atoms: _294  and  _296
REMARK  126  A    between atoms: _296  and  _297
REMARK  127  A    between atoms: _296  and  _299
REMARK  128  A    between atoms: _299  and  _300
REMARK  129  A    between atoms: _300  and  _301
REMARK  130  A    between atoms: _301  and  _302
REMARK  131  A    between atoms: _311  and  _313
REMARK  132  A    between atoms: _313  and  _314
REMARK  133  A    between atoms: _313  and  _316
REMARK  134  A    between atoms: _316  and  _317
REMARK  135  A    between atoms: _317  and  _318
REMARK  136  A    between atoms: _323  and  _325
REMARK  137  A    between atoms: _325  and  _326
REMARK  138  A    between atoms: _325  and  _328
REMARK  139  A    between atoms: _328  and  _329
REMARK                            x       y       z     vdW  Elec       q    Type
REMARK                         _______ _______ _______ _____ _____    ______ ____
ROOT
ATOM      1  O   HOH     1      27.599  43.999   3.679  0.00  0.00    +0.000 OA
ENDROOT
TORSDOF 0
REMARK  Name = ../refined-set-2016/3djv/3djv_pocket.pdb
REMARK  139 active torsions:
REMARK  status: ('A' for Active; 'I' for Inactive)
REMARK    1  A    between atoms: _1  and  _3
REMARK    2  A    between atoms: _3  and  _4
REMARK    3  A    between atoms: _3  and  _6
REMARK    4  A    between atoms: _6  and  _7
REMARK    5  A    between atoms: _7  and  _8
REMARK    6  A    between atoms: _10  and  _12
REMARK    7  A    between atoms: _12  and  _13
REMARK    8  A    between atoms: _12  and  _15
REMARK    9  A    between atoms: _15  and  _16
REMARK   10  A    between atoms: _16  and  _17
REMARK   11  A    between atoms: _19  and  _21
REMARK   12  A    between atoms: _21  and  _22
REMARK   13  A    between atoms: _21  and  _24
REMARK   14  A    between atoms: _24  and  _25
REMARK   15  A    between atoms: _25  and  _26
REMARK   16  A    between atoms: _26  and  _27
REMARK   17  A    between atoms: _27  and  _28
REMARK   18  A    between atoms: _32  and  _34
REMARK   19  A    between atoms: _34  and  _35
REMARK   20  A    between atoms: _34  and  _37
REMARK   21  A    between atoms: _37  and  _38
REMARK   22  A    between atoms: _38  and  _39
REMARK   23  A    between atoms: _39  and  _40
REMARK   24  A    between atoms: _40  and  _41
REMARK   25  A    between atoms: _46  and  _47
REMARK   26  A    between atoms: _52  and  _54
REMARK   27  A    between atoms: _54  and  _55
REMARK   28  A    between atoms: _54  and  _57
REMARK   29  A    between atoms: _60  and  _62
REMARK   30  A    between atoms: _62  and  _63
REMARK   31  A    between atoms: _62  and  _65
REMARK   32  A    between atoms: _65  and  _66
REMARK   33  A    between atoms: _71  and  _73
REMARK   34  A    between atoms: _73  and  _74
REMARK   35  A    between atoms: _73  and  _76
REMARK   36  A    between atoms: _76  and  _77
REMARK   37  A    between atoms: _80  and  _82
REMARK   38  A    between atoms: _82  and  _83
REMARK   39  A    between atoms: _82  and  _85
REMARK   40  A    between atoms: _85  and  _86
REMARK   41  A    between atoms: _92  and  _94
REMARK   42  A    between atoms: _94  and  _95
REMARK   43  A    between atoms: _94  and  _97
REMARK   44  A    between atoms: _97  and  _98
REMARK   45  A    between atoms: _98  and  _99
REMARK   46  A    between atoms: _99  and  _100
REMARK   47  A    between atoms: _100  and  _101
REMARK   48  A    between atoms: _105  and  _107
REMARK   49  A    between atoms: _107  and  _108
REMARK   50  A    between atoms: _107  and  _110
REMARK   51  A    between atoms: _110  and  _111
REMARK   52  A    between atoms: _116  and  _118
REMARK   53  A    between atoms: _118  and  _119
REMARK   54  A    between atoms: _118  and  _121
REMARK   55  A    between atoms: _121  and  _122
REMARK   56  A    between atoms: _125  and  _127
REMARK   57  A    between atoms: _127  and  _128
REMARK   58  A    between atoms: _127  and  _130
REMARK   59  A    between atoms: _130  and  _131
REMARK   60  A    between atoms: _134  and  _136
REMARK   61  A    between atoms: _136  and  _137
REMARK   62  A    between atoms: _136  and  _139
REMARK   63  A    between atoms: _139  and  _140
REMARK   64  A    between atoms: _143  and  _145
REMARK   65  A    between atoms: _145  and  _146
REMARK   66  A    between atoms: _145  and  _148
REMARK   67  A    between atoms: _150  and  _152
REMARK   68  A    between atoms: _152  and  _153
REMARK   69  A    between atoms: _152  and  _155
REMARK   70  A    between atoms: _155  and  _156
REMARK   71  A    between atoms: _156  and  _157
REMARK   72  A    between atoms: _157  and  _158
REMARK   73  A    between atoms: _167  and  _169
REMARK   74  A    between atoms: _169  and  _170
REMARK   75  A    between atoms: _169  and  _172
REMARK   76  A    between atoms: _172  and  _173
REMARK   77  A    between atoms: _173  and  _174
REMARK   78  A    between atoms: _174  and  _175
REMARK   79  A    between atoms: _175  and  _176
REMARK   80  A    between atoms: _180  and  _182
REMARK   81  A    between atoms: _182  and  _183
REMARK   82  A    between atoms: _182  and  _185
REMARK   83  A    between atoms: _185  and  _186
REMARK   84  A    between atoms: _191  and  _193
REMARK   85  A    between atoms: _193  and  _194
REMARK   86  A    between atoms: _193  and  _196
REMARK   87  A    between atoms: _196  and  _197
REMARK   88  A    between atoms: _200  and  _202
REMARK   89  A    between atoms: _202  and  _203
REMARK   90  A    between atoms: _206  and  _208
REMARK   91  A    between atoms: _208  and  _209
REMARK   92  A    between atoms: _208  and  _211
REMARK   93  A    between atoms: _214  and  _216
REMARK   94  A    between atoms: _216  and  _217
REMARK   95  A    between atoms: _216  and  _219
REMARK   96  A    between atoms: _219  and  _220
REMARK   97  A    between atoms: _225  and  _227
REMARK   98  A    between atoms: _227  and  _228
REMARK   99  A    between atoms: _227  and  _230
REMARK  100  A    between atoms: _230  and  _231
REMARK  101  A    between atoms: _237  and  _239
REMARK  102  A    between atoms: _239  and  _240
REMARK  103  A    between atoms: _239  and  _242
REMARK  104  A    between atoms: _242  and  _243
REMARK  105  A    between atoms: _246  and  _248
REMARK  106  A    between atoms: _248  and  _249
REMARK  107  A    between atoms: _252  and  _254
REMARK  108  A    between atoms: _254  and  _255
REMARK  109  A    between atoms: _254  and  _257
REMARK  110  A    between atoms: _257  and  _258
REMARK  111  A    between atoms: _260  and  _262
REMARK  112  A    between atoms: _262  and  _263
REMARK  113  A    between atoms: _262  and  _265
REMARK  114  A    between atoms: _269  and  _271
REMARK  115  A    between atoms: _271  and  _272
REMARK  116  A    between atoms: _271  and  _274
REMARK  117  A    between atoms: _274  and  _275
REMARK  118  A    between atoms: _275  and  _276
REMARK  119  A    between atoms: _276  and  _277
REMARK  120  A    between atoms: _277  and  _278
REMARK  121  A    between atoms: _282  and  _284
REMARK  122  A    between atoms: _284  and  _285
REMARK  123  A    between atoms: _284  and  _287
REMARK  124  A    between atoms: _287  and  _288
REMARK  125  A    between atoms: _294  and  _296
REMARK  126  A    between atoms: _296  and  _297
REMARK  127  A    between atoms: _296  and  _299
REMARK  128  A    between atoms: _299  and  _300
REMARK  129  A    between atoms: _300  and  _301
REMARK  130  A    between atoms: _301  and  _302
REMARK  131  A    between atoms: _311  and  _313
REMARK  132  A    between atoms: _313  and  _314
REMARK  133  A    between atoms: _313  and  _316
REMARK  134  A    between atoms: _316  and  _317
REMARK  135  A    between atoms: _317  and  _318
REMARK  136  A    between atoms: _323  and  _325
REMARK  137  A    between atoms: _325  and  _326
REMARK  138  A    between atoms: _325  and  _328
REMARK  139  A    between atoms: _328  and  _329
REMARK                            x       y       z     vdW  Elec       q    Type
REMARK                         _______ _______ _______ _____ _____    ______ ____
ROOT
ATOM      1  O   HOH     1      27.157  42.996   9.453  0.00  0.00    +0.000 OA
ENDROOT
TORSDOF 0
REMARK  Name = ../refined-set-2016/3djv/3djv_pocket.pdb
REMARK  139 active torsions:
REMARK  status: ('A' for Active; 'I' for Inactive)
REMARK    1  A    between atoms: _1  and  _3
REMARK    2  A    between atoms: _3  and  _4
REMARK    3  A    between atoms: _3  and  _6
REMARK    4  A    between atoms: _6  and  _7
REMARK    5  A    between atoms: _7  and  _8
REMARK    6  A    between atoms: _10  and  _12
REMARK    7  A    between atoms: _12  and  _13
REMARK    8  A    between atoms: _12  and  _15
REMARK    9  A    between atoms: _15  and  _16
REMARK   10  A    between atoms: _16  and  _17
REMARK   11  A    between atoms: _19  and  _21
REMARK   12  A    between atoms: _21  and  _22
REMARK   13  A    between atoms: _21  and  _24
REMARK   14  A    between atoms: _24  and  _25
REMARK   15  A    between atoms: _25  and  _26
REMARK   16  A    between atoms: _26  and  _27
REMARK   17  A    between atoms: _27  and  _28
REMARK   18  A    between atoms: _32  and  _34
REMARK   19  A    between atoms: _34  and  _35
REMARK   20  A    between atoms: _34  and  _37
REMARK   21  A    between atoms: _37  and  _38
REMARK   22  A    between atoms: _38  and  _39
REMARK   23  A    between atoms: _39  and  _40
REMARK   24  A    between atoms: _40  and  _41
REMARK   25  A    between atoms: _46  and  _47
REMARK   26  A    between atoms: _52  and  _54
REMARK   27  A    between atoms: _54  and  _55
REMARK   28  A    between atoms: _54  and  _57
REMARK   29  A    between atoms: _60  and  _62
REMARK   30  A    between atoms: _62  and  _63
REMARK   31  A    between atoms: _62  and  _65
REMARK   32  A    between atoms: _65  and  _66
REMARK   33  A    between atoms: _71  and  _73
REMARK   34  A    between atoms: _73  and  _74
REMARK   35  A    between atoms: _73  and  _76
REMARK   36  A    between atoms: _76  and  _77
REMARK   37  A    between atoms: _80  and  _82
REMARK   38  A    between atoms: _82  and  _83
REMARK   39  A    between atoms: _82  and  _85
REMARK   40  A    between atoms: _85  and  _86
REMARK   41  A    between atoms: _92  and  _94
REMARK   42  A    between atoms: _94  and  _95
REMARK   43  A    between atoms: _94  and  _97
REMARK   44  A    between atoms: _97  and  _98
REMARK   45  A    between atoms: _98  and  _99
REMARK   46  A    between atoms: _99  and  _100
REMARK   47  A    between atoms: _100  and  _101
REMARK   48  A    between atoms: _105  and  _107
REMARK   49  A    between atoms: _107  and  _108
REMARK   50  A    between atoms: _107  and  _110
REMARK   51  A    between atoms: _110  and  _111
REMARK   52  A    between atoms: _116  and  _118
REMARK   53  A    between atoms: _118  and  _119
REMARK   54  A    between atoms: _118  and  _121
REMARK   55  A    between atoms: _121  and  _122
REMARK   56  A    between atoms: _125  and  _127
REMARK   57  A    between atoms: _127  and  _128
REMARK   58  A    between atoms: _127  and  _130
REMARK   59  A    between atoms: _130  and  _131
REMARK   60  A    between atoms: _134  and  _136
REMARK   61  A    between atoms: _136  and  _137
REMARK   62  A    between atoms: _136  and  _139
REMARK   63  A    between atoms: _139  and  _140
REMARK   64  A    between atoms: _143  and  _145
REMARK   65  A    between atoms: _145  and  _146
REMARK   66  A    between atoms: _145  and  _148
REMARK   67  A    between atoms: _150  and  _152
REMARK   68  A    between atoms: _152  and  _153
REMARK   69  A    between atoms: _152  and  _155
REMARK   70  A    between atoms: _155  and  _156
REMARK   71  A    between atoms: _156  and  _157
REMARK   72  A    between atoms: _157  and  _158
REMARK   73  A    between atoms: _167  and  _169
REMARK   74  A    between atoms: _169  and  _170
REMARK   75  A    between atoms: _169  and  _172
REMARK   76  A    between atoms: _172  and  _173
REMARK   77  A    between atoms: _173  and  _174
REMARK   78  A    between atoms: _174  and  _175
REMARK   79  A    between atoms: _175  and  _176
REMARK   80  A    between atoms: _180  and  _182
REMARK   81  A    between atoms: _182  and  _183
REMARK   82  A    between atoms: _182  and  _185
REMARK   83  A    between atoms: _185  and  _186
REMARK   84  A    between atoms: _191  and  _193
REMARK   85  A    between atoms: _193  and  _194
REMARK   86  A    between atoms: _193  and  _196
REMARK   87  A    between atoms: _196  and  _197
REMARK   88  A    between atoms: _200  and  _202
REMARK   89  A    between atoms: _202  and  _203
REMARK   90  A    between atoms: _206  and  _208
REMARK   91  A    between atoms: _208  and  _209
REMARK   92  A    between atoms: _208  and  _211
REMARK   93  A    between atoms: _214  and  _216
REMARK   94  A    between atoms: _216  and  _217
REMARK   95  A    between atoms: _216  and  _219
REMARK   96  A    between atoms: _219  and  _220
REMARK   97  A    between atoms: _225  and  _227
REMARK   98  A    between atoms: _227  and  _228
REMARK   99  A    between atoms: _227  and  _230
REMARK  100  A    between atoms: _230  and  _231
REMARK  101  A    between atoms: _237  and  _239
REMARK  102  A    between atoms: _239  and  _240
REMARK  103  A    between atoms: _239  and  _242
REMARK  104  A    between atoms: _242  and  _243
REMARK  105  A    between atoms: _246  and  _248
REMARK  106  A    between atoms: _248  and  _249
REMARK  107  A    between atoms: _252  and  _254
REMARK  108  A    between atoms: _254  and  _255
REMARK  109  A    between atoms: _254  and  _257
REMARK  110  A    between atoms: _257  and  _258
REMARK  111  A    between atoms: _260  and  _262
REMARK  112  A    between atoms: _262  and  _263
REMARK  113  A    between atoms: _262  and  _265
REMARK  114  A    between atoms: _269  and  _271
REMARK  115  A    between atoms: _271  and  _272
REMARK  116  A    between atoms: _271  and  _274
REMARK  117  A    between atoms: _274  and  _275
REMARK  118  A    between atoms: _275  and  _276
REMARK  119  A    between atoms: _276  and  _277
REMARK  120  A    between atoms: _277  and  _278
REMARK  121  A    between atoms: _282  and  _284
REMARK  122  A    between atoms: _284  and  _285
REMARK  123  A    between atoms: _284  and  _287
REMARK  124  A    between atoms: _287  and  _288
REMARK  125  A    between atoms: _294  and  _296
REMARK  126  A    between atoms: _296  and  _297
REMARK  127  A    between atoms: _296  and  _299
REMARK  128  A    between atoms: _299  and  _300
REMARK  129  A    between atoms: _300  and  _301
REMARK  130  A    between atoms: _301  and  _302
REMARK  131  A    between atoms: _311  and  _313
REMARK  132  A    between atoms: _313  and  _314
REMARK  133  A    between atoms: _313  and  _316
REMARK  134  A    between atoms: _316  and  _317
REMARK  135  A    between atoms: _317  and  _318
REMARK  136  A    between atoms: _323  and  _325
REMARK  137  A    between atoms: _325  and  _326
REMARK  138  A    between atoms: _325  and  _328
REMARK  139  A    between atoms: _328  and  _329
REMARK                            x       y       z     vdW  Elec       q    Type
REMARK                         _______ _______ _______ _____ _____    ______ ____
ROOT
ATOM      1  O   HOH     1      27.651  43.221  -0.393  0.00  0.00    +0.000 OA
ENDROOT
TORSDOF 0
REMARK  Name = ../refined-set-2016/3djv/3djv_pocket.pdb
REMARK  139 active torsions:
REMARK  status: ('A' for Active; 'I' for Inactive)
REMARK    1  A    between atoms: _1  and  _3
REMARK    2  A    between atoms: _3  and  _4
REMARK    3  A    between atoms: _3  and  _6
REMARK    4  A    between atoms: _6  and  _7
REMARK    5  A    between atoms: _7  and  _8
REMARK    6  A    between atoms: _10  and  _12
REMARK    7  A    between atoms: _12  and  _13
REMARK    8  A    between atoms: _12  and  _15
REMARK    9  A    between atoms: _15  and  _16
REMARK   10  A    between atoms: _16  and  _17
REMARK   11  A    between atoms: _19  and  _21
REMARK   12  A    between atoms: _21  and  _22
REMARK   13  A    between atoms: _21  and  _24
REMARK   14  A    between atoms: _24  and  _25
REMARK   15  A    between atoms: _25  and  _26
REMARK   16  A    between atoms: _26  and  _27
REMARK   17  A    between atoms: _27  and  _28
REMARK   18  A    between atoms: _32  and  _34
REMARK   19  A    between atoms: _34  and  _35
REMARK   20  A    between atoms: _34  and  _37
REMARK   21  A    between atoms: _37  and  _38
REMARK   22  A    between atoms: _38  and  _39
REMARK   23  A    between atoms: _39  and  _40
REMARK   24  A    between atoms: _40  and  _41
REMARK   25  A    between atoms: _46  and  _47
REMARK   26  A    between atoms: _52  and  _54
REMARK   27  A    between atoms: _54  and  _55
REMARK   28  A    between atoms: _54  and  _57
REMARK   29  A    between atoms: _60  and  _62
REMARK   30  A    between atoms: _62  and  _63
REMARK   31  A    between atoms: _62  and  _65
REMARK   32  A    between atoms: _65  and  _66
REMARK   33  A    between atoms: _71  and  _73
REMARK   34  A    between atoms: _73  and  _74
REMARK   35  A    between atoms: _73  and  _76
REMARK   36  A    between atoms: _76  and  _77
REMARK   37  A    between atoms: _80  and  _82
REMARK   38  A    between atoms: _82  and  _83
REMARK   39  A    between atoms: _82  and  _85
REMARK   40  A    between atoms: _85  and  _86
REMARK   41  A    between atoms: _92  and  _94
REMARK   42  A    between atoms: _94  and  _95
REMARK   43  A    between atoms: _94  and  _97
REMARK   44  A    between atoms: _97  and  _98
REMARK   45  A    between atoms: _98  and  _99
REMARK   46  A    between atoms: _99  and  _100
REMARK   47  A    between atoms: _100  and  _101
REMARK   48  A    between atoms: _105  and  _107
REMARK   49  A    between atoms: _107  and  _108
REMARK   50  A    between atoms: _107  and  _110
REMARK   51  A    between atoms: _110  and  _111
REMARK   52  A    between atoms: _116  and  _118
REMARK   53  A    between atoms: _118  and  _119
REMARK   54  A    between atoms: _118  and  _121
REMARK   55  A    between atoms: _121  and  _122
REMARK   56  A    between atoms: _125  and  _127
REMARK   57  A    between atoms: _127  and  _128
REMARK   58  A    between atoms: _127  and  _130
REMARK   59  A    between atoms: _130  and  _131
REMARK   60  A    between atoms: _134  and  _136
REMARK   61  A    between atoms: _136  and  _137
REMARK   62  A    between atoms: _136  and  _139
REMARK   63  A    between atoms: _139  and  _140
REMARK   64  A    between atoms: _143  and  _145
REMARK   65  A    between atoms: _145  and  _146
REMARK   66  A    between atoms: _145  and  _148
REMARK   67  A    between atoms: _150  and  _152
REMARK   68  A    between atoms: _152  and  _153
REMARK   69  A    between atoms: _152  and  _155
REMARK   70  A    between atoms: _155  and  _156
REMARK   71  A    between atoms: _156  and  _157
REMARK   72  A    between atoms: _157  and  _158
REMARK   73  A    between atoms: _167  and  _169
REMARK   74  A    between atoms: _169  and  _170
REMARK   75  A    between atoms: _169  and  _172
REMARK   76  A    between atoms: _172  and  _173
REMARK   77  A    between atoms: _173  and  _174
REMARK   78  A    between atoms: _174  and  _175
REMARK   79  A    between atoms: _175  and  _176
REMARK   80  A    between atoms: _180  and  _182
REMARK   81  A    between atoms: _182  and  _183
REMARK   82  A    between atoms: _182  and  _185
REMARK   83  A    between atoms: _185  and  _186
REMARK   84  A    between atoms: _191  and  _193
REMARK   85  A    between atoms: _193  and  _194
REMARK   86  A    between atoms: _193  and  _196
REMARK   87  A    between atoms: _196  and  _197
REMARK   88  A    between atoms: _200  and  _202
REMARK   89  A    between atoms: _202  and  _203
REMARK   90  A    between atoms: _206  and  _208
REMARK   91  A    between atoms: _208  and  _209
REMARK   92  A    between atoms: _208  and  _211
REMARK   93  A    between atoms: _214  and  _216
REMARK   94  A    between atoms: _216  and  _217
REMARK   95  A    between atoms: _216  and  _219
REMARK   96  A    between atoms: _219  and  _220
REMARK   97  A    between atoms: _225  and  _227
REMARK   98  A    between atoms: _227  and  _228
REMARK   99  A    between atoms: _227  and  _230
REMARK  100  A    between atoms: _230  and  _231
REMARK  101  A    between atoms: _237  and  _239
REMARK  102  A    between atoms: _239  and  _240
REMARK  103  A    between atoms: _239  and  _242
REMARK  104  A    between atoms: _242  and  _243
REMARK  105  A    between atoms: _246  and  _248
REMARK  106  A    between atoms: _248  and  _249
REMARK  107  A    between atoms: _252  and  _254
REMARK  108  A    between atoms: _254  and  _255
REMARK  109  A    between atoms: _254  and  _257
REMARK  110  A    between atoms: _257  and  _258
REMARK  111  A    between atoms: _260  and  _262
REMARK  112  A    between atoms: _262  and  _263
REMARK  113  A    between atoms: _262  and  _265
REMARK  114  A    between atoms: _269  and  _271
REMARK  115  A    between atoms: _271  and  _272
REMARK  116  A    between atoms: _271  and  _274
REMARK  117  A    between atoms: _274  and  _275
REMARK  118  A    between atoms: _275  and  _276
REMARK  119  A    between atoms: _276  and  _277
REMARK  120  A    between atoms: _277  and  _278
REMARK  121  A    between atoms: _282  and  _284
REMARK  122  A    between atoms: _284  and  _285
REMARK  123  A    between atoms: _284  and  _287
REMARK  124  A    between atoms: _287  and  _288
REMARK  125  A    between atoms: _294  and  _296
REMARK  126  A    between atoms: _296  and  _297
REMARK  127  A    between atoms: _296  and  _299
REMARK  128  A    between atoms: _299  and  _300
REMARK  129  A    between atoms: _300  and  _301
REMARK  130  A    between atoms: _301  and  _302
REMARK  131  A    between atoms: _311  and  _313
REMARK  132  A    between atoms: _313  and  _314
REMARK  133  A    between atoms: _313  and  _316
REMARK  134  A    between atoms: _316  and  _317
REMARK  135  A    between atoms: _317  and  _318
REMARK  136  A    between atoms: _323  and  _325
REMARK  137  A    between atoms: _325  and  _326
REMARK  138  A    between atoms: _325  and  _328
REMARK  139  A    between atoms: _328  and  _329
REMARK                            x       y       z     vdW  Elec       q    Type
REMARK                         _______ _______ _______ _____ _____    ______ ____
ROOT
ATOM      1  O   HOH     1      30.158  35.647  13.338  0.00  0.00    +0.000 OA
ENDROOT
TORSDOF 0
REMARK  Name = ../refined-set-2016/3djv/3djv_pocket.pdb
REMARK  139 active torsions:
REMARK  status: ('A' for Active; 'I' for Inactive)
REMARK    1  A    between atoms: _1  and  _3
REMARK    2  A    between atoms: _3  and  _4
REMARK    3  A    between atoms: _3  and  _6
REMARK    4  A    between atoms: _6  and  _7
REMARK    5  A    between atoms: _7  and  _8
REMARK    6  A    between atoms: _10  and  _12
REMARK    7  A    between atoms: _12  and  _13
REMARK    8  A    between atoms: _12  and  _15
REMARK    9  A    between atoms: _15  and  _16
REMARK   10  A    between atoms: _16  and  _17
REMARK   11  A    between atoms: _19  and  _21
REMARK   12  A    between atoms: _21  and  _22
REMARK   13  A    between atoms: _21  and  _24
REMARK   14  A    between atoms: _24  and  _25
REMARK   15  A    between atoms: _25  and  _26
REMARK   16  A    between atoms: _26  and  _27
REMARK   17  A    between atoms: _27  and  _28
REMARK   18  A    between atoms: _32  and  _34
REMARK   19  A    between atoms: _34  and  _35
REMARK   20  A    between atoms: _34  and  _37
REMARK   21  A    between atoms: _37  and  _38
REMARK   22  A    between atoms: _38  and  _39
REMARK   23  A    between atoms: _39  and  _40
REMARK   24  A    between atoms: _40  and  _41
REMARK   25  A    between atoms: _46  and  _47
REMARK   26  A    between atoms: _52  and  _54
REMARK   27  A    between atoms: _54  and  _55
REMARK   28  A    between atoms: _54  and  _57
REMARK   29  A    between atoms: _60  and  _62
REMARK   30  A    between atoms: _62  and  _63
REMARK   31  A    between atoms: _62  and  _65
REMARK   32  A    between atoms: _65  and  _66
REMARK   33  A    between atoms: _71  and  _73
REMARK   34  A    between atoms: _73  and  _74
REMARK   35  A    between atoms: _73  and  _76
REMARK   36  A    between atoms: _76  and  _77
REMARK   37  A    between atoms: _80  and  _82
REMARK   38  A    between atoms: _82  and  _83
REMARK   39  A    between atoms: _82  and  _85
REMARK   40  A    between atoms: _85  and  _86
REMARK   41  A    between atoms: _92  and  _94
REMARK   42  A    between atoms: _94  and  _95
REMARK   43  A    between atoms: _94  and  _97
REMARK   44  A    between atoms: _97  and  _98
REMARK   45  A    between atoms: _98  and  _99
REMARK   46  A    between atoms: _99  and  _100
REMARK   47  A    between atoms: _100  and  _101
REMARK   48  A    between atoms: _105  and  _107
REMARK   49  A    between atoms: _107  and  _108
REMARK   50  A    between atoms: _107  and  _110
REMARK   51  A    between atoms: _110  and  _111
REMARK   52  A    between atoms: _116  and  _118
REMARK   53  A    between atoms: _118  and  _119
REMARK   54  A    between atoms: _118  and  _121
REMARK   55  A    between atoms: _121  and  _122
REMARK   56  A    between atoms: _125  and  _127
REMARK   57  A    between atoms: _127  and  _128
REMARK   58  A    between atoms: _127  and  _130
REMARK   59  A    between atoms: _130  and  _131
REMARK   60  A    between atoms: _134  and  _136
REMARK   61  A    between atoms: _136  and  _137
REMARK   62  A    between atoms: _136  and  _139
REMARK   63  A    between atoms: _139  and  _140
REMARK   64  A    between atoms: _143  and  _145
REMARK   65  A    between atoms: _145  and  _146
REMARK   66  A    between atoms: _145  and  _148
REMARK   67  A    between atoms: _150  and  _152
REMARK   68  A    between atoms: _152  and  _153
REMARK   69  A    between atoms: _152  and  _155
REMARK   70  A    between atoms: _155  and  _156
REMARK   71  A    between atoms: _156  and  _157
REMARK   72  A    between atoms: _157  and  _158
REMARK   73  A    between atoms: _167  and  _169
REMARK   74  A    between atoms: _169  and  _170
REMARK   75  A    between atoms: _169  and  _172
REMARK   76  A    between atoms: _172  and  _173
REMARK   77  A    between atoms: _173  and  _174
REMARK   78  A    between atoms: _174  and  _175
REMARK   79  A    between atoms: _175  and  _176
REMARK   80  A    between atoms: _180  and  _182
REMARK   81  A    between atoms: _182  and  _183
REMARK   82  A    between atoms: _182  and  _185
REMARK   83  A    between atoms: _185  and  _186
REMARK   84  A    between atoms: _191  and  _193
REMARK   85  A    between atoms: _193  and  _194
REMARK   86  A    between atoms: _193  and  _196
REMARK   87  A    between atoms: _196  and  _197
REMARK   88  A    between atoms: _200  and  _202
REMARK   89  A    between atoms: _202  and  _203
REMARK   90  A    between atoms: _206  and  _208
REMARK   91  A    between atoms: _208  and  _209
REMARK   92  A    between atoms: _208  and  _211
REMARK   93  A    between atoms: _214  and  _216
REMARK   94  A    between atoms: _216  and  _217
REMARK   95  A    between atoms: _216  and  _219
REMARK   96  A    between atoms: _219  and  _220
REMARK   97  A    between atoms: _225  and  _227
REMARK   98  A    between atoms: _227  and  _228
REMARK   99  A    between atoms: _227  and  _230
REMARK  100  A    between atoms: _230  and  _231
REMARK  101  A    between atoms: _237  and  _239
REMARK  102  A    between atoms: _239  and  _240
REMARK  103  A    between atoms: _239  and  _242
REMARK  104  A    between atoms: _242  and  _243
REMARK  105  A    between atoms: _246  and  _248
REMARK  106  A    between atoms: _248  and  _249
REMARK  107  A    between atoms: _252  and  _254
REMARK  108  A    between atoms: _254  and  _255
REMARK  109  A    between atoms: _254  and  _257
REMARK  110  A    between atoms: _257  and  _258
REMARK  111  A    between atoms: _260  and  _262
REMARK  112  A    between atoms: _262  and  _263
REMARK  113  A    between atoms: _262  and  _265
REMARK  114  A    between atoms: _269  and  _271
REMARK  115  A    between atoms: _271  and  _272
REMARK  116  A    between atoms: _271  and  _274
REMARK  117  A    between atoms: _274  and  _275
REMARK  118  A    between atoms: _275  and  _276
REMARK  119  A    between atoms: _276  and  _277
REMARK  120  A    between atoms: _277  and  _278
REMARK  121  A    between atoms: _282  and  _284
REMARK  122  A    between atoms: _284  and  _285
REMARK  123  A    between atoms: _284  and  _287
REMARK  124  A    between atoms: _287  and  _288
REMARK  125  A    between atoms: _294  and  _296
REMARK  126  A    between atoms: _296  and  _297
REMARK  127  A    between atoms: _296  and  _299
REMARK  128  A    between atoms: _299  and  _300
REMARK  129  A    between atoms: _300  and  _301
REMARK  130  A    between atoms: _301  and  _302
REMARK  131  A    between atoms: _311  and  _313
REMARK  132  A    between atoms: _313  and  _314
REMARK  133  A    between atoms: _313  and  _316
REMARK  134  A    between atoms: _316  and  _317
REMARK  135  A    between atoms: _317  and  _318
REMARK  136  A    between atoms: _323  and  _325
REMARK  137  A    between atoms: _325  and  _326
REMARK  138  A    between atoms: _325  and  _328
REMARK  139  A    between atoms: _328  and  _329
REMARK                            x       y       z     vdW  Elec       q    Type
REMARK                         _______ _______ _______ _____ _____    ______ ____
ROOT
ATOM      1  O   HOH     1      38.390  40.785   7.627  0.00  0.00    +0.000 OA
ENDROOT
TORSDOF 0
REMARK  Name = ../refined-set-2016/3djv/3djv_pocket.pdb
REMARK  139 active torsions:
REMARK  status: ('A' for Active; 'I' for Inactive)
REMARK    1  A    between atoms: _1  and  _3
REMARK    2  A    between atoms: _3  and  _4
REMARK    3  A    between atoms: _3  and  _6
REMARK    4  A    between atoms: _6  and  _7
REMARK    5  A    between atoms: _7  and  _8
REMARK    6  A    between atoms: _10  and  _12
REMARK    7  A    between atoms: _12  and  _13
REMARK    8  A    between atoms: _12  and  _15
REMARK    9  A    between atoms: _15  and  _16
REMARK   10  A    between atoms: _16  and  _17
REMARK   11  A    between atoms: _19  and  _21
REMARK   12  A    between atoms: _21  and  _22
REMARK   13  A    between atoms: _21  and  _24
REMARK   14  A    between atoms: _24  and  _25
REMARK   15  A    between atoms: _25  and  _26
REMARK   16  A    between atoms: _26  and  _27
REMARK   17  A    between atoms: _27  and  _28
REMARK   18  A    between atoms: _32  and  _34
REMARK   19  A    between atoms: _34  and  _35
REMARK   20  A    between atoms: _34  and  _37
REMARK   21  A    between atoms: _37  and  _38
REMARK   22  A    between atoms: _38  and  _39
REMARK   23  A    between atoms: _39  and  _40
REMARK   24  A    between atoms: _40  and  _41
REMARK   25  A    between atoms: _46  and  _47
REMARK   26  A    between atoms: _52  and  _54
REMARK   27  A    between atoms: _54  and  _55
REMARK   28  A    between atoms: _54  and  _57
REMARK   29  A    between atoms: _60  and  _62
REMARK   30  A    between atoms: _62  and  _63
REMARK   31  A    between atoms: _62  and  _65
REMARK   32  A    between atoms: _65  and  _66
REMARK   33  A    between atoms: _71  and  _73
REMARK   34  A    between atoms: _73  and  _74
REMARK   35  A    between atoms: _73  and  _76
REMARK   36  A    between atoms: _76  and  _77
REMARK   37  A    between atoms: _80  and  _82
REMARK   38  A    between atoms: _82  and  _83
REMARK   39  A    between atoms: _82  and  _85
REMARK   40  A    between atoms: _85  and  _86
REMARK   41  A    between atoms: _92  and  _94
REMARK   42  A    between atoms: _94  and  _95
REMARK   43  A    between atoms: _94  and  _97
REMARK   44  A    between atoms: _97  and  _98
REMARK   45  A    between atoms: _98  and  _99
REMARK   46  A    between atoms: _99  and  _100
REMARK   47  A    between atoms: _100  and  _101
REMARK   48  A    between atoms: _105  and  _107
REMARK   49  A    between atoms: _107  and  _108
REMARK   50  A    between atoms: _107  and  _110
REMARK   51  A    between atoms: _110  and  _111
REMARK   52  A    between atoms: _116  and  _118
REMARK   53  A    between atoms: _118  and  _119
REMARK   54  A    between atoms: _118  and  _121
REMARK   55  A    between atoms: _121  and  _122
REMARK   56  A    between atoms: _125  and  _127
REMARK   57  A    between atoms: _127  and  _128
REMARK   58  A    between atoms: _127  and  _130
REMARK   59  A    between atoms: _130  and  _131
REMARK   60  A    between atoms: _134  and  _136
REMARK   61  A    between atoms: _136  and  _137
REMARK   62  A    between atoms: _136  and  _139
REMARK   63  A    between atoms: _139  and  _140
REMARK   64  A    between atoms: _143  and  _145
REMARK   65  A    between atoms: _145  and  _146
REMARK   66  A    between atoms: _145  and  _148
REMARK   67  A    between atoms: _150  and  _152
REMARK   68  A    between atoms: _152  and  _153
REMARK   69  A    between atoms: _152  and  _155
REMARK   70  A    between atoms: _155  and  _156
REMARK   71  A    between atoms: _156  and  _157
REMARK   72  A    between atoms: _157  and  _158
REMARK   73  A    between atoms: _167  and  _169
REMARK   74  A    between atoms: _169  and  _170
REMARK   75  A    between atoms: _169  and  _172
REMARK   76  A    between atoms: _172  and  _173
REMARK   77  A    between atoms: _173  and  _174
REMARK   78  A    between atoms: _174  and  _175
REMARK   79  A    between atoms: _175  and  _176
REMARK   80  A    between atoms: _180  and  _182
REMARK   81  A    between atoms: _182  and  _183
REMARK   82  A    between atoms: _182  and  _185
REMARK   83  A    between atoms: _185  and  _186
REMARK   84  A    between atoms: _191  and  _193
REMARK   85  A    between atoms: _193  and  _194
REMARK   86  A    between atoms: _193  and  _196
REMARK   87  A    between atoms: _196  and  _197
REMARK   88  A    between atoms: _200  and  _202
REMARK   89  A    between atoms: _202  and  _203
REMARK   90  A    between atoms: _206  and  _208
REMARK   91  A    between atoms: _208  and  _209
REMARK   92  A    between atoms: _208  and  _211
REMARK   93  A    between atoms: _214  and  _216
REMARK   94  A    between atoms: _216  and  _217
REMARK   95  A    between atoms: _216  and  _219
REMARK   96  A    between atoms: _219  and  _220
REMARK   97  A    between atoms: _225  and  _227
REMARK   98  A    between atoms: _227  and  _228
REMARK   99  A    between atoms: _227  and  _230
REMARK  100  A    between atoms: _230  and  _231
REMARK  101  A    between atoms: _237  and  _239
REMARK  102  A    between atoms: _239  and  _240
REMARK  103  A    between atoms: _239  and  _242
REMARK  104  A    between atoms: _242  and  _243
REMARK  105  A    between atoms: _246  and  _248
REMARK  106  A    between atoms: _248  and  _249
REMARK  107  A    between atoms: _252  and  _254
REMARK  108  A    between atoms: _254  and  _255
REMARK  109  A    between atoms: _254  and  _257
REMARK  110  A    between atoms: _257  and  _258
REMARK  111  A    between atoms: _260  and  _262
REMARK  112  A    between atoms: _262  and  _263
REMARK  113  A    between atoms: _262  and  _265
REMARK  114  A    between atoms: _269  and  _271
REMARK  115  A    between atoms: _271  and  _272
REMARK  116  A    between atoms: _271  and  _274
REMARK  117  A    between atoms: _274  and  _275
REMARK  118  A    between atoms: _275  and  _276
REMARK  119  A    between atoms: _276  and  _277
REMARK  120  A    between atoms: _277  and  _278
REMARK  121  A    between atoms: _282  and  _284
REMARK  122  A    between atoms: _284  and  _285
REMARK  123  A    between atoms: _284  and  _287
REMARK  124  A    between atoms: _287  and  _288
REMARK  125  A    between atoms: _294  and  _296
REMARK  126  A    between atoms: _296  and  _297
REMARK  127  A    between atoms: _296  and  _299
REMARK  128  A    between atoms: _299  and  _300
REMARK  129  A    between atoms: _300  and  _301
REMARK  130  A    between atoms: _301  and  _302
REMARK  131  A    between atoms: _311  and  _313
REMARK  132  A    between atoms: _313  and  _314
REMARK  133  A    between atoms: _313  and  _316
REMARK  134  A    between atoms: _316  and  _317
REMARK  135  A    between atoms: _317  and  _318
REMARK  136  A    between atoms: _323  and  _325
REMARK  137  A    between atoms: _325  and  _326
REMARK  138  A    between atoms: _325  and  _328
REMARK  139  A    between atoms: _328  and  _329
REMARK                            x       y       z     vdW  Elec       q    Type
REMARK                         _______ _______ _______ _____ _____    ______ ____
ROOT
ATOM      1  O   HOH     1      24.657  34.846  16.507  0.00  0.00    +0.000 OA
ENDROOT
TORSDOF 0
REMARK  Name = ../refined-set-2016/3djv/3djv_pocket.pdb
REMARK  139 active torsions:
REMARK  status: ('A' for Active; 'I' for Inactive)
REMARK    1  A    between atoms: _1  and  _3
REMARK    2  A    between atoms: _3  and  _4
REMARK    3  A    between atoms: _3  and  _6
REMARK    4  A    between atoms: _6  and  _7
REMARK    5  A    between atoms: _7  and  _8
REMARK    6  A    between atoms: _10  and  _12
REMARK    7  A    between atoms: _12  and  _13
REMARK    8  A    between atoms: _12  and  _15
REMARK    9  A    between atoms: _15  and  _16
REMARK   10  A    between atoms: _16  and  _17
REMARK   11  A    between atoms: _19  and  _21
REMARK   12  A    between atoms: _21  and  _22
REMARK   13  A    between atoms: _21  and  _24
REMARK   14  A    between atoms: _24  and  _25
REMARK   15  A    between atoms: _25  and  _26
REMARK   16  A    between atoms: _26  and  _27
REMARK   17  A    between atoms: _27  and  _28
REMARK   18  A    between atoms: _32  and  _34
REMARK   19  A    between atoms: _34  and  _35
REMARK   20  A    between atoms: _34  and  _37
REMARK   21  A    between atoms: _37  and  _38
REMARK   22  A    between atoms: _38  and  _39
REMARK   23  A    between atoms: _39  and  _40
REMARK   24  A    between atoms: _40  and  _41
REMARK   25  A    between atoms: _46  and  _47
REMARK   26  A    between atoms: _52  and  _54
REMARK   27  A    between atoms: _54  and  _55
REMARK   28  A    between atoms: _54  and  _57
REMARK   29  A    between atoms: _60  and  _62
REMARK   30  A    between atoms: _62  and  _63
REMARK   31  A    between atoms: _62  and  _65
REMARK   32  A    between atoms: _65  and  _66
REMARK   33  A    between atoms: _71  and  _73
REMARK   34  A    between atoms: _73  and  _74
REMARK   35  A    between atoms: _73  and  _76
REMARK   36  A    between atoms: _76  and  _77
REMARK   37  A    between atoms: _80  and  _82
REMARK   38  A    between atoms: _82  and  _83
REMARK   39  A    between atoms: _82  and  _85
REMARK   40  A    between atoms: _85  and  _86
REMARK   41  A    between atoms: _92  and  _94
REMARK   42  A    between atoms: _94  and  _95
REMARK   43  A    between atoms: _94  and  _97
REMARK   44  A    between atoms: _97  and  _98
REMARK   45  A    between atoms: _98  and  _99
REMARK   46  A    between atoms: _99  and  _100
REMARK   47  A    between atoms: _100  and  _101
REMARK   48  A    between atoms: _105  and  _107
REMARK   49  A    between atoms: _107  and  _108
REMARK   50  A    between atoms: _107  and  _110
REMARK   51  A    between atoms: _110  and  _111
REMARK   52  A    between atoms: _116  and  _118
REMARK   53  A    between atoms: _118  and  _119
REMARK   54  A    between atoms: _118  and  _121
REMARK   55  A    between atoms: _121  and  _122
REMARK   56  A    between atoms: _125  and  _127
REMARK   57  A    between atoms: _127  and  _128
REMARK   58  A    between atoms: _127  and  _130
REMARK   59  A    between atoms: _130  and  _131
REMARK   60  A    between atoms: _134  and  _136
REMARK   61  A    between atoms: _136  and  _137
REMARK   62  A    between atoms: _136  and  _139
REMARK   63  A    between atoms: _139  and  _140
REMARK   64  A    between atoms: _143  and  _145
REMARK   65  A    between atoms: _145  and  _146
REMARK   66  A    between atoms: _145  and  _148
REMARK   67  A    between atoms: _150  and  _152
REMARK   68  A    between atoms: _152  and  _153
REMARK   69  A    between atoms: _152  and  _155
REMARK   70  A    between atoms: _155  and  _156
REMARK   71  A    between atoms: _156  and  _157
REMARK   72  A    between atoms: _157  and  _158
REMARK   73  A    between atoms: _167  and  _169
REMARK   74  A    between atoms: _169  and  _170
REMARK   75  A    between atoms: _169  and  _172
REMARK   76  A    between atoms: _172  and  _173
REMARK   77  A    between atoms: _173  and  _174
REMARK   78  A    between atoms: _174  and  _175
REMARK   79  A    between atoms: _175  and  _176
REMARK   80  A    between atoms: _180  and  _182
REMARK   81  A    between atoms: _182  and  _183
REMARK   82  A    between atoms: _182  and  _185
REMARK   83  A    between atoms: _185  and  _186
REMARK   84  A    between atoms: _191  and  _193
REMARK   85  A    between atoms: _193  and  _194
REMARK   86  A    between atoms: _193  and  _196
REMARK   87  A    between atoms: _196  and  _197
REMARK   88  A    between atoms: _200  and  _202
REMARK   89  A    between atoms: _202  and  _203
REMARK   90  A    between atoms: _206  and  _208
REMARK   91  A    between atoms: _208  and  _209
REMARK   92  A    between atoms: _208  and  _211
REMARK   93  A    between atoms: _214  and  _216
REMARK   94  A    between atoms: _216  and  _217
REMARK   95  A    between atoms: _216  and  _219
REMARK   96  A    between atoms: _219  and  _220
REMARK   97  A    between atoms: _225  and  _227
REMARK   98  A    between atoms: _227  and  _228
REMARK   99  A    between atoms: _227  and  _230
REMARK  100  A    between atoms: _230  and  _231
REMARK  101  A    between atoms: _237  and  _239
REMARK  102  A    between atoms: _239  and  _240
REMARK  103  A    between atoms: _239  and  _242
REMARK  104  A    between atoms: _242  and  _243
REMARK  105  A    between atoms: _246  and  _248
REMARK  106  A    between atoms: _248  and  _249
REMARK  107  A    between atoms: _252  and  _254
REMARK  108  A    between atoms: _254  and  _255
REMARK  109  A    between atoms: _254  and  _257
REMARK  110  A    between atoms: _257  and  _258
REMARK  111  A    between atoms: _260  and  _262
REMARK  112  A    between atoms: _262  and  _263
REMARK  113  A    between atoms: _262  and  _265
REMARK  114  A    between atoms: _269  and  _271
REMARK  115  A    between atoms: _271  and  _272
REMARK  116  A    between atoms: _271  and  _274
REMARK  117  A    between atoms: _274  and  _275
REMARK  118  A    between atoms: _275  and  _276
REMARK  119  A    between atoms: _276  and  _277
REMARK  120  A    between atoms: _277  and  _278
REMARK  121  A    between atoms: _282  and  _284
REMARK  122  A    between atoms: _284  and  _285
REMARK  123  A    between atoms: _284  and  _287
REMARK  124  A    between atoms: _287  and  _288
REMARK  125  A    between atoms: _294  and  _296
REMARK  126  A    between atoms: _296  and  _297
REMARK  127  A    between atoms: _296  and  _299
REMARK  128  A    between atoms: _299  and  _300
REMARK  129  A    between atoms: _300  and  _301
REMARK  130  A    between atoms: _301  and  _302
REMARK  131  A    between atoms: _311  and  _313
REMARK  132  A    between atoms: _313  and  _314
REMARK  133  A    between atoms: _313  and  _316
REMARK  134  A    between atoms: _316  and  _317
REMARK  135  A    between atoms: _317  and  _318
REMARK  136  A    between atoms: _323  and  _325
REMARK  137  A    between atoms: _325  and  _326
REMARK  138  A    between atoms: _325  and  _328
REMARK  139  A    between atoms: _328  and  _329
REMARK                            x       y       z     vdW  Elec       q    Type
REMARK                         _______ _______ _______ _____ _____    ______ ____
ROOT
ATOM      1  O   HOH     1      27.987  38.438   0.298  0.00  0.00    +0.000 OA
ENDROOT
TORSDOF 0
REMARK  Name = ../refined-set-2016/3djv/3djv_pocket.pdb
REMARK  139 active torsions:
REMARK  status: ('A' for Active; 'I' for Inactive)
REMARK    1  A    between atoms: _1  and  _3
REMARK    2  A    between atoms: _3  and  _4
REMARK    3  A    between atoms: _3  and  _6
REMARK    4  A    between atoms: _6  and  _7
REMARK    5  A    between atoms: _7  and  _8
REMARK    6  A    between atoms: _10  and  _12
REMARK    7  A    between atoms: _12  and  _13
REMARK    8  A    between atoms: _12  and  _15
REMARK    9  A    between atoms: _15  and  _16
REMARK   10  A    between atoms: _16  and  _17
REMARK   11  A    between atoms: _19  and  _21
REMARK   12  A    between atoms: _21  and  _22
REMARK   13  A    between atoms: _21  and  _24
REMARK   14  A    between atoms: _24  and  _25
REMARK   15  A    between atoms: _25  and  _26
REMARK   16  A    between atoms: _26  and  _27
REMARK   17  A    between atoms: _27  and  _28
REMARK   18  A    between atoms: _32  and  _34
REMARK   19  A    between atoms: _34  and  _35
REMARK   20  A    between atoms: _34  and  _37
REMARK   21  A    between atoms: _37  and  _38
REMARK   22  A    between atoms: _38  and  _39
REMARK   23  A    between atoms: _39  and  _40
REMARK   24  A    between atoms: _40  and  _41
REMARK   25  A    between atoms: _46  and  _47
REMARK   26  A    between atoms: _52  and  _54
REMARK   27  A    between atoms: _54  and  _55
REMARK   28  A    between atoms: _54  and  _57
REMARK   29  A    between atoms: _60  and  _62
REMARK   30  A    between atoms: _62  and  _63
REMARK   31  A    between atoms: _62  and  _65
REMARK   32  A    between atoms: _65  and  _66
REMARK   33  A    between atoms: _71  and  _73
REMARK   34  A    between atoms: _73  and  _74
REMARK   35  A    between atoms: _73  and  _76
REMARK   36  A    between atoms: _76  and  _77
REMARK   37  A    between atoms: _80  and  _82
REMARK   38  A    between atoms: _82  and  _83
REMARK   39  A    between atoms: _82  and  _85
REMARK   40  A    between atoms: _85  and  _86
REMARK   41  A    between atoms: _92  and  _94
REMARK   42  A    between atoms: _94  and  _95
REMARK   43  A    between atoms: _94  and  _97
REMARK   44  A    between atoms: _97  and  _98
REMARK   45  A    between atoms: _98  and  _99
REMARK   46  A    between atoms: _99  and  _100
REMARK   47  A    between atoms: _100  and  _101
REMARK   48  A    between atoms: _105  and  _107
REMARK   49  A    between atoms: _107  and  _108
REMARK   50  A    between atoms: _107  and  _110
REMARK   51  A    between atoms: _110  and  _111
REMARK   52  A    between atoms: _116  and  _118
REMARK   53  A    between atoms: _118  and  _119
REMARK   54  A    between atoms: _118  and  _121
REMARK   55  A    between atoms: _121  and  _122
REMARK   56  A    between atoms: _125  and  _127
REMARK   57  A    between atoms: _127  and  _128
REMARK   58  A    between atoms: _127  and  _130
REMARK   59  A    between atoms: _130  and  _131
REMARK   60  A    between atoms: _134  and  _136
REMARK   61  A    between atoms: _136  and  _137
REMARK   62  A    between atoms: _136  and  _139
REMARK   63  A    between atoms: _139  and  _140
REMARK   64  A    between atoms: _143  and  _145
REMARK   65  A    between atoms: _145  and  _146
REMARK   66  A    between atoms: _145  and  _148
REMARK   67  A    between atoms: _150  and  _152
REMARK   68  A    between atoms: _152  and  _153
REMARK   69  A    between atoms: _152  and  _155
REMARK   70  A    between atoms: _155  and  _156
REMARK   71  A    between atoms: _156  and  _157
REMARK   72  A    between atoms: _157  and  _158
REMARK   73  A    between atoms: _167  and  _169
REMARK   74  A    between atoms: _169  and  _170
REMARK   75  A    between atoms: _169  and  _172
REMARK   76  A    between atoms: _172  and  _173
REMARK   77  A    between atoms: _173  and  _174
REMARK   78  A    between atoms: _174  and  _175
REMARK   79  A    between atoms: _175  and  _176
REMARK   80  A    between atoms: _180  and  _182
REMARK   81  A    between atoms: _182  and  _183
REMARK   82  A    between atoms: _182  and  _185
REMARK   83  A    between atoms: _185  and  _186
REMARK   84  A    between atoms: _191  and  _193
REMARK   85  A    between atoms: _193  and  _194
REMARK   86  A    between atoms: _193  and  _196
REMARK   87  A    between atoms: _196  and  _197
REMARK   88  A    between atoms: _200  and  _202
REMARK   89  A    between atoms: _202  and  _203
REMARK   90  A    between atoms: _206  and  _208
REMARK   91  A    between atoms: _208  and  _209
REMARK   92  A    between atoms: _208  and  _211
REMARK   93  A    between atoms: _214  and  _216
REMARK   94  A    between atoms: _216  and  _217
REMARK   95  A    between atoms: _216  and  _219
REMARK   96  A    between atoms: _219  and  _220
REMARK   97  A    between atoms: _225  and  _227
REMARK   98  A    between atoms: _227  and  _228
REMARK   99  A    between atoms: _227  and  _230
REMARK  100  A    between atoms: _230  and  _231
REMARK  101  A    between atoms: _237  and  _239
REMARK  102  A    between atoms: _239  and  _240
REMARK  103  A    between atoms: _239  and  _242
REMARK  104  A    between atoms: _242  and  _243
REMARK  105  A    between atoms: _246  and  _248
REMARK  106  A    between atoms: _248  and  _249
REMARK  107  A    between atoms: _252  and  _254
REMARK  108  A    between atoms: _254  and  _255
REMARK  109  A    between atoms: _254  and  _257
REMARK  110  A    between atoms: _257  and  _258
REMARK  111  A    between atoms: _260  and  _262
REMARK  112  A    between atoms: _262  and  _263
REMARK  113  A    between atoms: _262  and  _265
REMARK  114  A    between atoms: _269  and  _271
REMARK  115  A    between atoms: _271  and  _272
REMARK  116  A    between atoms: _271  and  _274
REMARK  117  A    between atoms: _274  and  _275
REMARK  118  A    between atoms: _275  and  _276
REMARK  119  A    between atoms: _276  and  _277
REMARK  120  A    between atoms: _277  and  _278
REMARK  121  A    between atoms: _282  and  _284
REMARK  122  A    between atoms: _284  and  _285
REMARK  123  A    between atoms: _284  and  _287
REMARK  124  A    between atoms: _287  and  _288
REMARK  125  A    between atoms: _294  and  _296
REMARK  126  A    between atoms: _296  and  _297
REMARK  127  A    between atoms: _296  and  _299
REMARK  128  A    between atoms: _299  and  _300
REMARK  129  A    between atoms: _300  and  _301
REMARK  130  A    between atoms: _301  and  _302
REMARK  131  A    between atoms: _311  and  _313
REMARK  132  A    between atoms: _313  and  _314
REMARK  133  A    between atoms: _313  and  _316
REMARK  134  A    between atoms: _316  and  _317
REMARK  135  A    between atoms: _317  and  _318
REMARK  136  A    between atoms: _323  and  _325
REMARK  137  A    between atoms: _325  and  _326
REMARK  138  A    between atoms: _325  and  _328
REMARK  139  A    between atoms: _328  and  _329
REMARK                            x       y       z     vdW  Elec       q    Type
REMARK                         _______ _______ _______ _____ _____    ______ ____
ROOT
ATOM      1  O   HOH     1      37.521  32.754  12.202  0.00  0.00    +0.000 OA
ENDROOT
TORSDOF 0
REMARK  Name = ../refined-set-2016/3djv/3djv_pocket.pdb
REMARK  139 active torsions:
REMARK  status: ('A' for Active; 'I' for Inactive)
REMARK    1  A    between atoms: _1  and  _3
REMARK    2  A    between atoms: _3  and  _4
REMARK    3  A    between atoms: _3  and  _6
REMARK    4  A    between atoms: _6  and  _7
REMARK    5  A    between atoms: _7  and  _8
REMARK    6  A    between atoms: _10  and  _12
REMARK    7  A    between atoms: _12  and  _13
REMARK    8  A    between atoms: _12  and  _15
REMARK    9  A    between atoms: _15  and  _16
REMARK   10  A    between atoms: _16  and  _17
REMARK   11  A    between atoms: _19  and  _21
REMARK   12  A    between atoms: _21  and  _22
REMARK   13  A    between atoms: _21  and  _24
REMARK   14  A    between atoms: _24  and  _25
REMARK   15  A    between atoms: _25  and  _26
REMARK   16  A    between atoms: _26  and  _27
REMARK   17  A    between atoms: _27  and  _28
REMARK   18  A    between atoms: _32  and  _34
REMARK   19  A    between atoms: _34  and  _35
REMARK   20  A    between atoms: _34  and  _37
REMARK   21  A    between atoms: _37  and  _38
REMARK   22  A    between atoms: _38  and  _39
REMARK   23  A    between atoms: _39  and  _40
REMARK   24  A    between atoms: _40  and  _41
REMARK   25  A    between atoms: _46  and  _47
REMARK   26  A    between atoms: _52  and  _54
REMARK   27  A    between atoms: _54  and  _55
REMARK   28  A    between atoms: _54  and  _57
REMARK   29  A    between atoms: _60  and  _62
REMARK   30  A    between atoms: _62  and  _63
REMARK   31  A    between atoms: _62  and  _65
REMARK   32  A    between atoms: _65  and  _66
REMARK   33  A    between atoms: _71  and  _73
REMARK   34  A    between atoms: _73  and  _74
REMARK   35  A    between atoms: _73  and  _76
REMARK   36  A    between atoms: _76  and  _77
REMARK   37  A    between atoms: _80  and  _82
REMARK   38  A    between atoms: _82  and  _83
REMARK   39  A    between atoms: _82  and  _85
REMARK   40  A    between atoms: _85  and  _86
REMARK   41  A    between atoms: _92  and  _94
REMARK   42  A    between atoms: _94  and  _95
REMARK   43  A    between atoms: _94  and  _97
REMARK   44  A    between atoms: _97  and  _98
REMARK   45  A    between atoms: _98  and  _99
REMARK   46  A    between atoms: _99  and  _100
REMARK   47  A    between atoms: _100  and  _101
REMARK   48  A    between atoms: _105  and  _107
REMARK   49  A    between atoms: _107  and  _108
REMARK   50  A    between atoms: _107  and  _110
REMARK   51  A    between atoms: _110  and  _111
REMARK   52  A    between atoms: _116  and  _118
REMARK   53  A    between atoms: _118  and  _119
REMARK   54  A    between atoms: _118  and  _121
REMARK   55  A    between atoms: _121  and  _122
REMARK   56  A    between atoms: _125  and  _127
REMARK   57  A    between atoms: _127  and  _128
REMARK   58  A    between atoms: _127  and  _130
REMARK   59  A    between atoms: _130  and  _131
REMARK   60  A    between atoms: _134  and  _136
REMARK   61  A    between atoms: _136  and  _137
REMARK   62  A    between atoms: _136  and  _139
REMARK   63  A    between atoms: _139  and  _140
REMARK   64  A    between atoms: _143  and  _145
REMARK   65  A    between atoms: _145  and  _146
REMARK   66  A    between atoms: _145  and  _148
REMARK   67  A    between atoms: _150  and  _152
REMARK   68  A    between atoms: _152  and  _153
REMARK   69  A    between atoms: _152  and  _155
REMARK   70  A    between atoms: _155  and  _156
REMARK   71  A    between atoms: _156  and  _157
REMARK   72  A    between atoms: _157  and  _158
REMARK   73  A    between atoms: _167  and  _169
REMARK   74  A    between atoms: _169  and  _170
REMARK   75  A    between atoms: _169  and  _172
REMARK   76  A    between atoms: _172  and  _173
REMARK   77  A    between atoms: _173  and  _174
REMARK   78  A    between atoms: _174  and  _175
REMARK   79  A    between atoms: _175  and  _176
REMARK   80  A    between atoms: _180  and  _182
REMARK   81  A    between atoms: _182  and  _183
REMARK   82  A    between atoms: _182  and  _185
REMARK   83  A    between atoms: _185  and  _186
REMARK   84  A    between atoms: _191  and  _193
REMARK   85  A    between atoms: _193  and  _194
REMARK   86  A    between atoms: _193  and  _196
REMARK   87  A    between atoms: _196  and  _197
REMARK   88  A    between atoms: _200  and  _202
REMARK   89  A    between atoms: _202  and  _203
REMARK   90  A    between atoms: _206  and  _208
REMARK   91  A    between atoms: _208  and  _209
REMARK   92  A    between atoms: _208  and  _211
REMARK   93  A    between atoms: _214  and  _216
REMARK   94  A    between atoms: _216  and  _217
REMARK   95  A    between atoms: _216  and  _219
REMARK   96  A    between atoms: _219  and  _220
REMARK   97  A    between atoms: _225  and  _227
REMARK   98  A    between atoms: _227  and  _228
REMARK   99  A    between atoms: _227  and  _230
REMARK  100  A    between atoms: _230  and  _231
REMARK  101  A    between atoms: _237  and  _239
REMARK  102  A    between atoms: _239  and  _240
REMARK  103  A    between atoms: _239  and  _242
REMARK  104  A    between atoms: _242  and  _243
REMARK  105  A    between atoms: _246  and  _248
REMARK  106  A    between atoms: _248  and  _249
REMARK  107  A    between atoms: _252  and  _254
REMARK  108  A    between atoms: _254  and  _255
REMARK  109  A    between atoms: _254  and  _257
REMARK  110  A    between atoms: _257  and  _258
REMARK  111  A    between atoms: _260  and  _262
REMARK  112  A    between atoms: _262  and  _263
REMARK  113  A    between atoms: _262  and  _265
REMARK  114  A    between atoms: _269  and  _271
REMARK  115  A    between atoms: _271  and  _272
REMARK  116  A    between atoms: _271  and  _274
REMARK  117  A    between atoms: _274  and  _275
REMARK  118  A    between atoms: _275  and  _276
REMARK  119  A    between atoms: _276  and  _277
REMARK  120  A    between atoms: _277  and  _278
REMARK  121  A    between atoms: _282  and  _284
REMARK  122  A    between atoms: _284  and  _285
REMARK  123  A    between atoms: _284  and  _287
REMARK  124  A    between atoms: _287  and  _288
REMARK  125  A    between atoms: _294  and  _296
REMARK  126  A    between atoms: _296  and  _297
REMARK  127  A    between atoms: _296  and  _299
REMARK  128  A    between atoms: _299  and  _300
REMARK  129  A    between atoms: _300  and  _301
REMARK  130  A    between atoms: _301  and  _302
REMARK  131  A    between atoms: _311  and  _313
REMARK  132  A    between atoms: _313  and  _314
REMARK  133  A    between atoms: _313  and  _316
REMARK  134  A    between atoms: _316  and  _317
REMARK  135  A    between atoms: _317  and  _318
REMARK  136  A    between atoms: _323  and  _325
REMARK  137  A    between atoms: _325  and  _326
REMARK  138  A    between atoms: _325  and  _328
REMARK  139  A    between atoms: _328  and  _329
REMARK                            x       y       z     vdW  Elec       q    Type
REMARK                         _______ _______ _______ _____ _____    ______ ____
ROOT
ATOM      1  O   HOH     1      26.014  42.513  -4.307  0.00  0.00    +0.000 OA
ENDROOT
TORSDOF 0
REMARK  Name = ../refined-set-2016/3djv/3djv_pocket.pdb
REMARK  139 active torsions:
REMARK  status: ('A' for Active; 'I' for Inactive)
REMARK    1  A    between atoms: _1  and  _3
REMARK    2  A    between atoms: _3  and  _4
REMARK    3  A    between atoms: _3  and  _6
REMARK    4  A    between atoms: _6  and  _7
REMARK    5  A    between atoms: _7  and  _8
REMARK    6  A    between atoms: _10  and  _12
REMARK    7  A    between atoms: _12  and  _13
REMARK    8  A    between atoms: _12  and  _15
REMARK    9  A    between atoms: _15  and  _16
REMARK   10  A    between atoms: _16  and  _17
REMARK   11  A    between atoms: _19  and  _21
REMARK   12  A    between atoms: _21  and  _22
REMARK   13  A    between atoms: _21  and  _24
REMARK   14  A    between atoms: _24  and  _25
REMARK   15  A    between atoms: _25  and  _26
REMARK   16  A    between atoms: _26  and  _27
REMARK   17  A    between atoms: _27  and  _28
REMARK   18  A    between atoms: _32  and  _34
REMARK   19  A    between atoms: _34  and  _35
REMARK   20  A    between atoms: _34  and  _37
REMARK   21  A    between atoms: _37  and  _38
REMARK   22  A    between atoms: _38  and  _39
REMARK   23  A    between atoms: _39  and  _40
REMARK   24  A    between atoms: _40  and  _41
REMARK   25  A    between atoms: _46  and  _47
REMARK   26  A    between atoms: _52  and  _54
REMARK   27  A    between atoms: _54  and  _55
REMARK   28  A    between atoms: _54  and  _57
REMARK   29  A    between atoms: _60  and  _62
REMARK   30  A    between atoms: _62  and  _63
REMARK   31  A    between atoms: _62  and  _65
REMARK   32  A    between atoms: _65  and  _66
REMARK   33  A    between atoms: _71  and  _73
REMARK   34  A    between atoms: _73  and  _74
REMARK   35  A    between atoms: _73  and  _76
REMARK   36  A    between atoms: _76  and  _77
REMARK   37  A    between atoms: _80  and  _82
REMARK   38  A    between atoms: _82  and  _83
REMARK   39  A    between atoms: _82  and  _85
REMARK   40  A    between atoms: _85  and  _86
REMARK   41  A    between atoms: _92  and  _94
REMARK   42  A    between atoms: _94  and  _95
REMARK   43  A    between atoms: _94  and  _97
REMARK   44  A    between atoms: _97  and  _98
REMARK   45  A    between atoms: _98  and  _99
REMARK   46  A    between atoms: _99  and  _100
REMARK   47  A    between atoms: _100  and  _101
REMARK   48  A    between atoms: _105  and  _107
REMARK   49  A    between atoms: _107  and  _108
REMARK   50  A    between atoms: _107  and  _110
REMARK   51  A    between atoms: _110  and  _111
REMARK   52  A    between atoms: _116  and  _118
REMARK   53  A    between atoms: _118  and  _119
REMARK   54  A    between atoms: _118  and  _121
REMARK   55  A    between atoms: _121  and  _122
REMARK   56  A    between atoms: _125  and  _127
REMARK   57  A    between atoms: _127  and  _128
REMARK   58  A    between atoms: _127  and  _130
REMARK   59  A    between atoms: _130  and  _131
REMARK   60  A    between atoms: _134  and  _136
REMARK   61  A    between atoms: _136  and  _137
REMARK   62  A    between atoms: _136  and  _139
REMARK   63  A    between atoms: _139  and  _140
REMARK   64  A    between atoms: _143  and  _145
REMARK   65  A    between atoms: _145  and  _146
REMARK   66  A    between atoms: _145  and  _148
REMARK   67  A    between atoms: _150  and  _152
REMARK   68  A    between atoms: _152  and  _153
REMARK   69  A    between atoms: _152  and  _155
REMARK   70  A    between atoms: _155  and  _156
REMARK   71  A    between atoms: _156  and  _157
REMARK   72  A    between atoms: _157  and  _158
REMARK   73  A    between atoms: _167  and  _169
REMARK   74  A    between atoms: _169  and  _170
REMARK   75  A    between atoms: _169  and  _172
REMARK   76  A    between atoms: _172  and  _173
REMARK   77  A    between atoms: _173  and  _174
REMARK   78  A    between atoms: _174  and  _175
REMARK   79  A    between atoms: _175  and  _176
REMARK   80  A    between atoms: _180  and  _182
REMARK   81  A    between atoms: _182  and  _183
REMARK   82  A    between atoms: _182  and  _185
REMARK   83  A    between atoms: _185  and  _186
REMARK   84  A    between atoms: _191  and  _193
REMARK   85  A    between atoms: _193  and  _194
REMARK   86  A    between atoms: _193  and  _196
REMARK   87  A    between atoms: _196  and  _197
REMARK   88  A    between atoms: _200  and  _202
REMARK   89  A    between atoms: _202  and  _203
REMARK   90  A    between atoms: _206  and  _208
REMARK   91  A    between atoms: _208  and  _209
REMARK   92  A    between atoms: _208  and  _211
REMARK   93  A    between atoms: _214  and  _216
REMARK   94  A    between atoms: _216  and  _217
REMARK   95  A    between atoms: _216  and  _219
REMARK   96  A    between atoms: _219  and  _220
REMARK   97  A    between atoms: _225  and  _227
REMARK   98  A    between atoms: _227  and  _228
REMARK   99  A    between atoms: _227  and  _230
REMARK  100  A    between atoms: _230  and  _231
REMARK  101  A    between atoms: _237  and  _239
REMARK  102  A    between atoms: _239  and  _240
REMARK  103  A    between atoms: _239  and  _242
REMARK  104  A    between atoms: _242  and  _243
REMARK  105  A    between atoms: _246  and  _248
REMARK  106  A    between atoms: _248  and  _249
REMARK  107  A    between atoms: _252  and  _254
REMARK  108  A    between atoms: _254  and  _255
REMARK  109  A    between atoms: _254  and  _257
REMARK  110  A    between atoms: _257  and  _258
REMARK  111  A    between atoms: _260  and  _262
REMARK  112  A    between atoms: _262  and  _263
REMARK  113  A    between atoms: _262  and  _265
REMARK  114  A    between atoms: _269  and  _271
REMARK  115  A    between atoms: _271  and  _272
REMARK  116  A    between atoms: _271  and  _274
REMARK  117  A    between atoms: _274  and  _275
REMARK  118  A    between atoms: _275  and  _276
REMARK  119  A    between atoms: _276  and  _277
REMARK  120  A    between atoms: _277  and  _278
REMARK  121  A    between atoms: _282  and  _284
REMARK  122  A    between atoms: _284  and  _285
REMARK  123  A    between atoms: _284  and  _287
REMARK  124  A    between atoms: _287  and  _288
REMARK  125  A    between atoms: _294  and  _296
REMARK  126  A    between atoms: _296  and  _297
REMARK  127  A    between atoms: _296  and  _299
REMARK  128  A    between atoms: _299  and  _300
REMARK  129  A    between atoms: _300  and  _301
REMARK  130  A    between atoms: _301  and  _302
REMARK  131  A    between atoms: _311  and  _313
REMARK  132  A    between atoms: _313  and  _314
REMARK  133  A    between atoms: _313  and  _316
REMARK  134  A    between atoms: _316  and  _317
REMARK  135  A    between atoms: _317  and  _318
REMARK  136  A    between atoms: _323  and  _325
REMARK  137  A    between atoms: _325  and  _326
REMARK  138  A    between atoms: _325  and  _328
REMARK  139  A    between atoms: _328  and  _329
REMARK                            x       y       z     vdW  Elec       q    Type
REMARK                         _______ _______ _______ _____ _____    ______ ____
ROOT
ATOM      1  O   HOH     1      26.658  39.961  14.934  0.00  0.00    +0.000 OA
ENDROOT
TORSDOF 0
REMARK  Name = ../refined-set-2016/3djv/3djv_pocket.pdb
REMARK  139 active torsions:
REMARK  status: ('A' for Active; 'I' for Inactive)
REMARK    1  A    between atoms: _1  and  _3
REMARK    2  A    between atoms: _3  and  _4
REMARK    3  A    between atoms: _3  and  _6
REMARK    4  A    between atoms: _6  and  _7
REMARK    5  A    between atoms: _7  and  _8
REMARK    6  A    between atoms: _10  and  _12
REMARK    7  A    between atoms: _12  and  _13
REMARK    8  A    between atoms: _12  and  _15
REMARK    9  A    between atoms: _15  and  _16
REMARK   10  A    between atoms: _16  and  _17
REMARK   11  A    between atoms: _19  and  _21
REMARK   12  A    between atoms: _21  and  _22
REMARK   13  A    between atoms: _21  and  _24
REMARK   14  A    between atoms: _24  and  _25
REMARK   15  A    between atoms: _25  and  _26
REMARK   16  A    between atoms: _26  and  _27
REMARK   17  A    between atoms: _27  and  _28
REMARK   18  A    between atoms: _32  and  _34
REMARK   19  A    between atoms: _34  and  _35
REMARK   20  A    between atoms: _34  and  _37
REMARK   21  A    between atoms: _37  and  _38
REMARK   22  A    between atoms: _38  and  _39
REMARK   23  A    between atoms: _39  and  _40
REMARK   24  A    between atoms: _40  and  _41
REMARK   25  A    between atoms: _46  and  _47
REMARK   26  A    between atoms: _52  and  _54
REMARK   27  A    between atoms: _54  and  _55
REMARK   28  A    between atoms: _54  and  _57
REMARK   29  A    between atoms: _60  and  _62
REMARK   30  A    between atoms: _62  and  _63
REMARK   31  A    between atoms: _62  and  _65
REMARK   32  A    between atoms: _65  and  _66
REMARK   33  A    between atoms: _71  and  _73
REMARK   34  A    between atoms: _73  and  _74
REMARK   35  A    between atoms: _73  and  _76
REMARK   36  A    between atoms: _76  and  _77
REMARK   37  A    between atoms: _80  and  _82
REMARK   38  A    between atoms: _82  and  _83
REMARK   39  A    between atoms: _82  and  _85
REMARK   40  A    between atoms: _85  and  _86
REMARK   41  A    between atoms: _92  and  _94
REMARK   42  A    between atoms: _94  and  _95
REMARK   43  A    between atoms: _94  and  _97
REMARK   44  A    between atoms: _97  and  _98
REMARK   45  A    between atoms: _98  and  _99
REMARK   46  A    between atoms: _99  and  _100
REMARK   47  A    between atoms: _100  and  _101
REMARK   48  A    between atoms: _105  and  _107
REMARK   49  A    between atoms: _107  and  _108
REMARK   50  A    between atoms: _107  and  _110
REMARK   51  A    between atoms: _110  and  _111
REMARK   52  A    between atoms: _116  and  _118
REMARK   53  A    between atoms: _118  and  _119
REMARK   54  A    between atoms: _118  and  _121
REMARK   55  A    between atoms: _121  and  _122
REMARK   56  A    between atoms: _125  and  _127
REMARK   57  A    between atoms: _127  and  _128
REMARK   58  A    between atoms: _127  and  _130
REMARK   59  A    between atoms: _130  and  _131
REMARK   60  A    between atoms: _134  and  _136
REMARK   61  A    between atoms: _136  and  _137
REMARK   62  A    between atoms: _136  and  _139
REMARK   63  A    between atoms: _139  and  _140
REMARK   64  A    between atoms: _143  and  _145
REMARK   65  A    between atoms: _145  and  _146
REMARK   66  A    between atoms: _145  and  _148
REMARK   67  A    between atoms: _150  and  _152
REMARK   68  A    between atoms: _152  and  _153
REMARK   69  A    between atoms: _152  and  _155
REMARK   70  A    between atoms: _155  and  _156
REMARK   71  A    between atoms: _156  and  _157
REMARK   72  A    between atoms: _157  and  _158
REMARK   73  A    between atoms: _167  and  _169
REMARK   74  A    between atoms: _169  and  _170
REMARK   75  A    between atoms: _169  and  _172
REMARK   76  A    between atoms: _172  and  _173
REMARK   77  A    between atoms: _173  and  _174
REMARK   78  A    between atoms: _174  and  _175
REMARK   79  A    between atoms: _175  and  _176
REMARK   80  A    between atoms: _180  and  _182
REMARK   81  A    between atoms: _182  and  _183
REMARK   82  A    between atoms: _182  and  _185
REMARK   83  A    between atoms: _185  and  _186
REMARK   84  A    between atoms: _191  and  _193
REMARK   85  A    between atoms: _193  and  _194
REMARK   86  A    between atoms: _193  and  _196
REMARK   87  A    between atoms: _196  and  _197
REMARK   88  A    between atoms: _200  and  _202
REMARK   89  A    between atoms: _202  and  _203
REMARK   90  A    between atoms: _206  and  _208
REMARK   91  A    between atoms: _208  and  _209
REMARK   92  A    between atoms: _208  and  _211
REMARK   93  A    between atoms: _214  and  _216
REMARK   94  A    between atoms: _216  and  _217
REMARK   95  A    between atoms: _216  and  _219
REMARK   96  A    between atoms: _219  and  _220
REMARK   97  A    between atoms: _225  and  _227
REMARK   98  A    between atoms: _227  and  _228
REMARK   99  A    between atoms: _227  and  _230
REMARK  100  A    between atoms: _230  and  _231
REMARK  101  A    between atoms: _237  and  _239
REMARK  102  A    between atoms: _239  and  _240
REMARK  103  A    between atoms: _239  and  _242
REMARK  104  A    between atoms: _242  and  _243
REMARK  105  A    between atoms: _246  and  _248
REMARK  106  A    between atoms: _248  and  _249
REMARK  107  A    between atoms: _252  and  _254
REMARK  108  A    between atoms: _254  and  _255
REMARK  109  A    between atoms: _254  and  _257
REMARK  110  A    between atoms: _257  and  _258
REMARK  111  A    between atoms: _260  and  _262
REMARK  112  A    between atoms: _262  and  _263
REMARK  113  A    between atoms: _262  and  _265
REMARK  114  A    between atoms: _269  and  _271
REMARK  115  A    between atoms: _271  and  _272
REMARK  116  A    between atoms: _271  and  _274
REMARK  117  A    between atoms: _274  and  _275
REMARK  118  A    between atoms: _275  and  _276
REMARK  119  A    between atoms: _276  and  _277
REMARK  120  A    between atoms: _277  and  _278
REMARK  121  A    between atoms: _282  and  _284
REMARK  122  A    between atoms: _284  and  _285
REMARK  123  A    between atoms: _284  and  _287
REMARK  124  A    between atoms: _287  and  _288
REMARK  125  A    between atoms: _294  and  _296
REMARK  126  A    between atoms: _296  and  _297
REMARK  127  A    between atoms: _296  and  _299
REMARK  128  A    between atoms: _299  and  _300
REMARK  129  A    between atoms: _300  and  _301
REMARK  130  A    between atoms: _301  and  _302
REMARK  131  A    between atoms: _311  and  _313
REMARK  132  A    between atoms: _313  and  _314
REMARK  133  A    between atoms: _313  and  _316
REMARK  134  A    between atoms: _316  and  _317
REMARK  135  A    between atoms: _317  and  _318
REMARK  136  A    between atoms: _323  and  _325
REMARK  137  A    between atoms: _325  and  _326
REMARK  138  A    between atoms: _325  and  _328
REMARK  139  A    between atoms: _328  and  _329
REMARK                            x       y       z     vdW  Elec       q    Type
REMARK                         _______ _______ _______ _____ _____    ______ ____
ROOT
ATOM      1  O   HOH     1      27.395  34.360  15.296  0.00  0.00    +0.000 OA
ENDROOT
TORSDOF 0
REMARK  Name = ../refined-set-2016/3djv/3djv_pocket.pdb
REMARK  139 active torsions:
REMARK  status: ('A' for Active; 'I' for Inactive)
REMARK    1  A    between atoms: _1  and  _3
REMARK    2  A    between atoms: _3  and  _4
REMARK    3  A    between atoms: _3  and  _6
REMARK    4  A    between atoms: _6  and  _7
REMARK    5  A    between atoms: _7  and  _8
REMARK    6  A    between atoms: _10  and  _12
REMARK    7  A    between atoms: _12  and  _13
REMARK    8  A    between atoms: _12  and  _15
REMARK    9  A    between atoms: _15  and  _16
REMARK   10  A    between atoms: _16  and  _17
REMARK   11  A    between atoms: _19  and  _21
REMARK   12  A    between atoms: _21  and  _22
REMARK   13  A    between atoms: _21  and  _24
REMARK   14  A    between atoms: _24  and  _25
REMARK   15  A    between atoms: _25  and  _26
REMARK   16  A    between atoms: _26  and  _27
REMARK   17  A    between atoms: _27  and  _28
REMARK   18  A    between atoms: _32  and  _34
REMARK   19  A    between atoms: _34  and  _35
REMARK   20  A    between atoms: _34  and  _37
REMARK   21  A    between atoms: _37  and  _38
REMARK   22  A    between atoms: _38  and  _39
REMARK   23  A    between atoms: _39  and  _40
REMARK   24  A    between atoms: _40  and  _41
REMARK   25  A    between atoms: _46  and  _47
REMARK   26  A    between atoms: _52  and  _54
REMARK   27  A    between atoms: _54  and  _55
REMARK   28  A    between atoms: _54  and  _57
REMARK   29  A    between atoms: _60  and  _62
REMARK   30  A    between atoms: _62  and  _63
REMARK   31  A    between atoms: _62  and  _65
REMARK   32  A    between atoms: _65  and  _66
REMARK   33  A    between atoms: _71  and  _73
REMARK   34  A    between atoms: _73  and  _74
REMARK   35  A    between atoms: _73  and  _76
REMARK   36  A    between atoms: _76  and  _77
REMARK   37  A    between atoms: _80  and  _82
REMARK   38  A    between atoms: _82  and  _83
REMARK   39  A    between atoms: _82  and  _85
REMARK   40  A    between atoms: _85  and  _86
REMARK   41  A    between atoms: _92  and  _94
REMARK   42  A    between atoms: _94  and  _95
REMARK   43  A    between atoms: _94  and  _97
REMARK   44  A    between atoms: _97  and  _98
REMARK   45  A    between atoms: _98  and  _99
REMARK   46  A    between atoms: _99  and  _100
REMARK   47  A    between atoms: _100  and  _101
REMARK   48  A    between atoms: _105  and  _107
REMARK   49  A    between atoms: _107  and  _108
REMARK   50  A    between atoms: _107  and  _110
REMARK   51  A    between atoms: _110  and  _111
REMARK   52  A    between atoms: _116  and  _118
REMARK   53  A    between atoms: _118  and  _119
REMARK   54  A    between atoms: _118  and  _121
REMARK   55  A    between atoms: _121  and  _122
REMARK   56  A    between atoms: _125  and  _127
REMARK   57  A    between atoms: _127  and  _128
REMARK   58  A    between atoms: _127  and  _130
REMARK   59  A    between atoms: _130  and  _131
REMARK   60  A    between atoms: _134  and  _136
REMARK   61  A    between atoms: _136  and  _137
REMARK   62  A    between atoms: _136  and  _139
REMARK   63  A    between atoms: _139  and  _140
REMARK   64  A    between atoms: _143  and  _145
REMARK   65  A    between atoms: _145  and  _146
REMARK   66  A    between atoms: _145  and  _148
REMARK   67  A    between atoms: _150  and  _152
REMARK   68  A    between atoms: _152  and  _153
REMARK   69  A    between atoms: _152  and  _155
REMARK   70  A    between atoms: _155  and  _156
REMARK   71  A    between atoms: _156  and  _157
REMARK   72  A    between atoms: _157  and  _158
REMARK   73  A    between atoms: _167  and  _169
REMARK   74  A    between atoms: _169  and  _170
REMARK   75  A    between atoms: _169  and  _172
REMARK   76  A    between atoms: _172  and  _173
REMARK   77  A    between atoms: _173  and  _174
REMARK   78  A    between atoms: _174  and  _175
REMARK   79  A    between atoms: _175  and  _176
REMARK   80  A    between atoms: _180  and  _182
REMARK   81  A    between atoms: _182  and  _183
REMARK   82  A    between atoms: _182  and  _185
REMARK   83  A    between atoms: _185  and  _186
REMARK   84  A    between atoms: _191  and  _193
REMARK   85  A    between atoms: _193  and  _194
REMARK   86  A    between atoms: _193  and  _196
REMARK   87  A    between atoms: _196  and  _197
REMARK   88  A    between atoms: _200  and  _202
REMARK   89  A    between atoms: _202  and  _203
REMARK   90  A    between atoms: _206  and  _208
REMARK   91  A    between atoms: _208  and  _209
REMARK   92  A    between atoms: _208  and  _211
REMARK   93  A    between atoms: _214  and  _216
REMARK   94  A    between atoms: _216  and  _217
REMARK   95  A    between atoms: _216  and  _219
REMARK   96  A    between atoms: _219  and  _220
REMARK   97  A    between atoms: _225  and  _227
REMARK   98  A    between atoms: _227  and  _228
REMARK   99  A    between atoms: _227  and  _230
REMARK  100  A    between atoms: _230  and  _231
REMARK  101  A    between atoms: _237  and  _239
REMARK  102  A    between atoms: _239  and  _240
REMARK  103  A    between atoms: _239  and  _242
REMARK  104  A    between atoms: _242  and  _243
REMARK  105  A    between atoms: _246  and  _248
REMARK  106  A    between atoms: _248  and  _249
REMARK  107  A    between atoms: _252  and  _254
REMARK  108  A    between atoms: _254  and  _255
REMARK  109  A    between atoms: _254  and  _257
REMARK  110  A    between atoms: _257  and  _258
REMARK  111  A    between atoms: _260  and  _262
REMARK  112  A    between atoms: _262  and  _263
REMARK  113  A    between atoms: _262  and  _265
REMARK  114  A    between atoms: _269  and  _271
REMARK  115  A    between atoms: _271  and  _272
REMARK  116  A    between atoms: _271  and  _274
REMARK  117  A    between atoms: _274  and  _275
REMARK  118  A    between atoms: _275  and  _276
REMARK  119  A    between atoms: _276  and  _277
REMARK  120  A    between atoms: _277  and  _278
REMARK  121  A    between atoms: _282  and  _284
REMARK  122  A    between atoms: _284  and  _285
REMARK  123  A    between atoms: _284  and  _287
REMARK  124  A    between atoms: _287  and  _288
REMARK  125  A    between atoms: _294  and  _296
REMARK  126  A    between atoms: _296  and  _297
REMARK  127  A    between atoms: _296  and  _299
REMARK  128  A    between atoms: _299  and  _300
REMARK  129  A    between atoms: _300  and  _301
REMARK  130  A    between atoms: _301  and  _302
REMARK  131  A    between atoms: _311  and  _313
REMARK  132  A    between atoms: _313  and  _314
REMARK  133  A    between atoms: _313  and  _316
REMARK  134  A    between atoms: _316  and  _317
REMARK  135  A    between atoms: _317  and  _318
REMARK  136  A    between atoms: _323  and  _325
REMARK  137  A    between atoms: _325  and  _326
REMARK  138  A    between atoms: _325  and  _328
REMARK  139  A    between atoms: _328  and  _329
REMARK                            x       y       z     vdW  Elec       q    Type
REMARK                         _______ _______ _______ _____ _____    ______ ____
ROOT
ATOM      1  O   HOH     1      39.507  41.988   9.600  0.00  0.00    +0.000 OA
ENDROOT
TORSDOF 0
REMARK  Name = ../refined-set-2016/3djv/3djv_pocket.pdb
REMARK  139 active torsions:
REMARK  status: ('A' for Active; 'I' for Inactive)
REMARK    1  A    between atoms: _1  and  _3
REMARK    2  A    between atoms: _3  and  _4
REMARK    3  A    between atoms: _3  and  _6
REMARK    4  A    between atoms: _6  and  _7
REMARK    5  A    between atoms: _7  and  _8
REMARK    6  A    between atoms: _10  and  _12
REMARK    7  A    between atoms: _12  and  _13
REMARK    8  A    between atoms: _12  and  _15
REMARK    9  A    between atoms: _15  and  _16
REMARK   10  A    between atoms: _16  and  _17
REMARK   11  A    between atoms: _19  and  _21
REMARK   12  A    between atoms: _21  and  _22
REMARK   13  A    between atoms: _21  and  _24
REMARK   14  A    between atoms: _24  and  _25
REMARK   15  A    between atoms: _25  and  _26
REMARK   16  A    between atoms: _26  and  _27
REMARK   17  A    between atoms: _27  and  _28
REMARK   18  A    between atoms: _32  and  _34
REMARK   19  A    between atoms: _34  and  _35
REMARK   20  A    between atoms: _34  and  _37
REMARK   21  A    between atoms: _37  and  _38
REMARK   22  A    between atoms: _38  and  _39
REMARK   23  A    between atoms: _39  and  _40
REMARK   24  A    between atoms: _40  and  _41
REMARK   25  A    between atoms: _46  and  _47
REMARK   26  A    between atoms: _52  and  _54
REMARK   27  A    between atoms: _54  and  _55
REMARK   28  A    between atoms: _54  and  _57
REMARK   29  A    between atoms: _60  and  _62
REMARK   30  A    between atoms: _62  and  _63
REMARK   31  A    between atoms: _62  and  _65
REMARK   32  A    between atoms: _65  and  _66
REMARK   33  A    between atoms: _71  and  _73
REMARK   34  A    between atoms: _73  and  _74
REMARK   35  A    between atoms: _73  and  _76
REMARK   36  A    between atoms: _76  and  _77
REMARK   37  A    between atoms: _80  and  _82
REMARK   38  A    between atoms: _82  and  _83
REMARK   39  A    between atoms: _82  and  _85
REMARK   40  A    between atoms: _85  and  _86
REMARK   41  A    between atoms: _92  and  _94
REMARK   42  A    between atoms: _94  and  _95
REMARK   43  A    between atoms: _94  and  _97
REMARK   44  A    between atoms: _97  and  _98
REMARK   45  A    between atoms: _98  and  _99
REMARK   46  A    between atoms: _99  and  _100
REMARK   47  A    between atoms: _100  and  _101
REMARK   48  A    between atoms: _105  and  _107
REMARK   49  A    between atoms: _107  and  _108
REMARK   50  A    between atoms: _107  and  _110
REMARK   51  A    between atoms: _110  and  _111
REMARK   52  A    between atoms: _116  and  _118
REMARK   53  A    between atoms: _118  and  _119
REMARK   54  A    between atoms: _118  and  _121
REMARK   55  A    between atoms: _121  and  _122
REMARK   56  A    between atoms: _125  and  _127
REMARK   57  A    between atoms: _127  and  _128
REMARK   58  A    between atoms: _127  and  _130
REMARK   59  A    between atoms: _130  and  _131
REMARK   60  A    between atoms: _134  and  _136
REMARK   61  A    between atoms: _136  and  _137
REMARK   62  A    between atoms: _136  and  _139
REMARK   63  A    between atoms: _139  and  _140
REMARK   64  A    between atoms: _143  and  _145
REMARK   65  A    between atoms: _145  and  _146
REMARK   66  A    between atoms: _145  and  _148
REMARK   67  A    between atoms: _150  and  _152
REMARK   68  A    between atoms: _152  and  _153
REMARK   69  A    between atoms: _152  and  _155
REMARK   70  A    between atoms: _155  and  _156
REMARK   71  A    between atoms: _156  and  _157
REMARK   72  A    between atoms: _157  and  _158
REMARK   73  A    between atoms: _167  and  _169
REMARK   74  A    between atoms: _169  and  _170
REMARK   75  A    between atoms: _169  and  _172
REMARK   76  A    between atoms: _172  and  _173
REMARK   77  A    between atoms: _173  and  _174
REMARK   78  A    between atoms: _174  and  _175
REMARK   79  A    between atoms: _175  and  _176
REMARK   80  A    between atoms: _180  and  _182
REMARK   81  A    between atoms: _182  and  _183
REMARK   82  A    between atoms: _182  and  _185
REMARK   83  A    between atoms: _185  and  _186
REMARK   84  A    between atoms: _191  and  _193
REMARK   85  A    between atoms: _193  and  _194
REMARK   86  A    between atoms: _193  and  _196
REMARK   87  A    between atoms: _196  and  _197
REMARK   88  A    between atoms: _200  and  _202
REMARK   89  A    between atoms: _202  and  _203
REMARK   90  A    between atoms: _206  and  _208
REMARK   91  A    between atoms: _208  and  _209
REMARK   92  A    between atoms: _208  and  _211
REMARK   93  A    between atoms: _214  and  _216
REMARK   94  A    between atoms: _216  and  _217
REMARK   95  A    between atoms: _216  and  _219
REMARK   96  A    between atoms: _219  and  _220
REMARK   97  A    between atoms: _225  and  _227
REMARK   98  A    between atoms: _227  and  _228
REMARK   99  A    between atoms: _227  and  _230
REMARK  100  A    between atoms: _230  and  _231
REMARK  101  A    between atoms: _237  and  _239
REMARK  102  A    between atoms: _239  and  _240
REMARK  103  A    between atoms: _239  and  _242
REMARK  104  A    between atoms: _242  and  _243
REMARK  105  A    between atoms: _246  and  _248
REMARK  106  A    between atoms: _248  and  _249
REMARK  107  A    between atoms: _252  and  _254
REMARK  108  A    between atoms: _254  and  _255
REMARK  109  A    between atoms: _254  and  _257
REMARK  110  A    between atoms: _257  and  _258
REMARK  111  A    between atoms: _260  and  _262
REMARK  112  A    between atoms: _262  and  _263
REMARK  113  A    between atoms: _262  and  _265
REMARK  114  A    between atoms: _269  and  _271
REMARK  115  A    between atoms: _271  and  _272
REMARK  116  A    between atoms: _271  and  _274
REMARK  117  A    between atoms: _274  and  _275
REMARK  118  A    between atoms: _275  and  _276
REMARK  119  A    between atoms: _276  and  _277
REMARK  120  A    between atoms: _277  and  _278
REMARK  121  A    between atoms: _282  and  _284
REMARK  122  A    between atoms: _284  and  _285
REMARK  123  A    between atoms: _284  and  _287
REMARK  124  A    between atoms: _287  and  _288
REMARK  125  A    between atoms: _294  and  _296
REMARK  126  A    between atoms: _296  and  _297
REMARK  127  A    between atoms: _296  and  _299
REMARK  128  A    between atoms: _299  and  _300
REMARK  129  A    between atoms: _300  and  _301
REMARK  130  A    between atoms: _301  and  _302
REMARK  131  A    between atoms: _311  and  _313
REMARK  132  A    between atoms: _313  and  _314
REMARK  133  A    between atoms: _313  and  _316
REMARK  134  A    between atoms: _316  and  _317
REMARK  135  A    between atoms: _317  and  _318
REMARK  136  A    between atoms: _323  and  _325
REMARK  137  A    between atoms: _325  and  _326
REMARK  138  A    between atoms: _325  and  _328
REMARK  139  A    between atoms: _328  and  _329
REMARK                            x       y       z     vdW  Elec       q    Type
REMARK                         _______ _______ _______ _____ _____    ______ ____
ROOT
ATOM      1  O   HOH     1      38.145  40.484  11.759  0.00  0.00    +0.000 OA
ENDROOT
TORSDOF 0
REMARK  Name = ../refined-set-2016/3djv/3djv_pocket.pdb
REMARK  139 active torsions:
REMARK  status: ('A' for Active; 'I' for Inactive)
REMARK    1  A    between atoms: _1  and  _3
REMARK    2  A    between atoms: _3  and  _4
REMARK    3  A    between atoms: _3  and  _6
REMARK    4  A    between atoms: _6  and  _7
REMARK    5  A    between atoms: _7  and  _8
REMARK    6  A    between atoms: _10  and  _12
REMARK    7  A    between atoms: _12  and  _13
REMARK    8  A    between atoms: _12  and  _15
REMARK    9  A    between atoms: _15  and  _16
REMARK   10  A    between atoms: _16  and  _17
REMARK   11  A    between atoms: _19  and  _21
REMARK   12  A    between atoms: _21  and  _22
REMARK   13  A    between atoms: _21  and  _24
REMARK   14  A    between atoms: _24  and  _25
REMARK   15  A    between atoms: _25  and  _26
REMARK   16  A    between atoms: _26  and  _27
REMARK   17  A    between atoms: _27  and  _28
REMARK   18  A    between atoms: _32  and  _34
REMARK   19  A    between atoms: _34  and  _35
REMARK   20  A    between atoms: _34  and  _37
REMARK   21  A    between atoms: _37  and  _38
REMARK   22  A    between atoms: _38  and  _39
REMARK   23  A    between atoms: _39  and  _40
REMARK   24  A    between atoms: _40  and  _41
REMARK   25  A    between atoms: _46  and  _47
REMARK   26  A    between atoms: _52  and  _54
REMARK   27  A    between atoms: _54  and  _55
REMARK   28  A    between atoms: _54  and  _57
REMARK   29  A    between atoms: _60  and  _62
REMARK   30  A    between atoms: _62  and  _63
REMARK   31  A    between atoms: _62  and  _65
REMARK   32  A    between atoms: _65  and  _66
REMARK   33  A    between atoms: _71  and  _73
REMARK   34  A    between atoms: _73  and  _74
REMARK   35  A    between atoms: _73  and  _76
REMARK   36  A    between atoms: _76  and  _77
REMARK   37  A    between atoms: _80  and  _82
REMARK   38  A    between atoms: _82  and  _83
REMARK   39  A    between atoms: _82  and  _85
REMARK   40  A    between atoms: _85  and  _86
REMARK   41  A    between atoms: _92  and  _94
REMARK   42  A    between atoms: _94  and  _95
REMARK   43  A    between atoms: _94  and  _97
REMARK   44  A    between atoms: _97  and  _98
REMARK   45  A    between atoms: _98  and  _99
REMARK   46  A    between atoms: _99  and  _100
REMARK   47  A    between atoms: _100  and  _101
REMARK   48  A    between atoms: _105  and  _107
REMARK   49  A    between atoms: _107  and  _108
REMARK   50  A    between atoms: _107  and  _110
REMARK   51  A    between atoms: _110  and  _111
REMARK   52  A    between atoms: _116  and  _118
REMARK   53  A    between atoms: _118  and  _119
REMARK   54  A    between atoms: _118  and  _121
REMARK   55  A    between atoms: _121  and  _122
REMARK   56  A    between atoms: _125  and  _127
REMARK   57  A    between atoms: _127  and  _128
REMARK   58  A    between atoms: _127  and  _130
REMARK   59  A    between atoms: _130  and  _131
REMARK   60  A    between atoms: _134  and  _136
REMARK   61  A    between atoms: _136  and  _137
REMARK   62  A    between atoms: _136  and  _139
REMARK   63  A    between atoms: _139  and  _140
REMARK   64  A    between atoms: _143  and  _145
REMARK   65  A    between atoms: _145  and  _146
REMARK   66  A    between atoms: _145  and  _148
REMARK   67  A    between atoms: _150  and  _152
REMARK   68  A    between atoms: _152  and  _153
REMARK   69  A    between atoms: _152  and  _155
REMARK   70  A    between atoms: _155  and  _156
REMARK   71  A    between atoms: _156  and  _157
REMARK   72  A    between atoms: _157  and  _158
REMARK   73  A    between atoms: _167  and  _169
REMARK   74  A    between atoms: _169  and  _170
REMARK   75  A    between atoms: _169  and  _172
REMARK   76  A    between atoms: _172  and  _173
REMARK   77  A    between atoms: _173  and  _174
REMARK   78  A    between atoms: _174  and  _175
REMARK   79  A    between atoms: _175  and  _176
REMARK   80  A    between atoms: _180  and  _182
REMARK   81  A    between atoms: _182  and  _183
REMARK   82  A    between atoms: _182  and  _185
REMARK   83  A    between atoms: _185  and  _186
REMARK   84  A    between atoms: _191  and  _193
REMARK   85  A    between atoms: _193  and  _194
REMARK   86  A    between atoms: _193  and  _196
REMARK   87  A    between atoms: _196  and  _197
REMARK   88  A    between atoms: _200  and  _202
REMARK   89  A    between atoms: _202  and  _203
REMARK   90  A    between atoms: _206  and  _208
REMARK   91  A    between atoms: _208  and  _209
REMARK   92  A    between atoms: _208  and  _211
REMARK   93  A    between atoms: _214  and  _216
REMARK   94  A    between atoms: _216  and  _217
REMARK   95  A    between atoms: _216  and  _219
REMARK   96  A    between atoms: _219  and  _220
REMARK   97  A    between atoms: _225  and  _227
REMARK   98  A    between atoms: _227  and  _228
REMARK   99  A    between atoms: _227  and  _230
REMARK  100  A    between atoms: _230  and  _231
REMARK  101  A    between atoms: _237  and  _239
REMARK  102  A    between atoms: _239  and  _240
REMARK  103  A    between atoms: _239  and  _242
REMARK  104  A    between atoms: _242  and  _243
REMARK  105  A    between atoms: _246  and  _248
REMARK  106  A    between atoms: _248  and  _249
REMARK  107  A    between atoms: _252  and  _254
REMARK  108  A    between atoms: _254  and  _255
REMARK  109  A    between atoms: _254  and  _257
REMARK  110  A    between atoms: _257  and  _258
REMARK  111  A    between atoms: _260  and  _262
REMARK  112  A    between atoms: _262  and  _263
REMARK  113  A    between atoms: _262  and  _265
REMARK  114  A    between atoms: _269  and  _271
REMARK  115  A    between atoms: _271  and  _272
REMARK  116  A    between atoms: _271  and  _274
REMARK  117  A    between atoms: _274  and  _275
REMARK  118  A    between atoms: _275  and  _276
REMARK  119  A    between atoms: _276  and  _277
REMARK  120  A    between atoms: _277  and  _278
REMARK  121  A    between atoms: _282  and  _284
REMARK  122  A    between atoms: _284  and  _285
REMARK  123  A    between atoms: _284  and  _287
REMARK  124  A    between atoms: _287  and  _288
REMARK  125  A    between atoms: _294  and  _296
REMARK  126  A    between atoms: _296  and  _297
REMARK  127  A    between atoms: _296  and  _299
REMARK  128  A    between atoms: _299  and  _300
REMARK  129  A    between atoms: _300  and  _301
REMARK  130  A    between atoms: _301  and  _302
REMARK  131  A    between atoms: _311  and  _313
REMARK  132  A    between atoms: _313  and  _314
REMARK  133  A    between atoms: _313  and  _316
REMARK  134  A    between atoms: _316  and  _317
REMARK  135  A    between atoms: _317  and  _318
REMARK  136  A    between atoms: _323  and  _325
REMARK  137  A    between atoms: _325  and  _326
REMARK  138  A    between atoms: _325  and  _328
REMARK  139  A    between atoms: _328  and  _329
REMARK                            x       y       z     vdW  Elec       q    Type
REMARK                         _______ _______ _______ _____ _____    ______ ____
ROOT
ATOM      1  O   HOH     1      34.249  35.827   9.276  0.00  0.00    +0.000 OA
ENDROOT
TORSDOF 0
REMARK  Name = ../refined-set-2016/3djv/3djv_pocket.pdb
REMARK  139 active torsions:
REMARK  status: ('A' for Active; 'I' for Inactive)
REMARK    1  A    between atoms: _1  and  _3
REMARK    2  A    between atoms: _3  and  _4
REMARK    3  A    between atoms: _3  and  _6
REMARK    4  A    between atoms: _6  and  _7
REMARK    5  A    between atoms: _7  and  _8
REMARK    6  A    between atoms: _10  and  _12
REMARK    7  A    between atoms: _12  and  _13
REMARK    8  A    between atoms: _12  and  _15
REMARK    9  A    between atoms: _15  and  _16
REMARK   10  A    between atoms: _16  and  _17
REMARK   11  A    between atoms: _19  and  _21
REMARK   12  A    between atoms: _21  and  _22
REMARK   13  A    between atoms: _21  and  _24
REMARK   14  A    between atoms: _24  and  _25
REMARK   15  A    between atoms: _25  and  _26
REMARK   16  A    between atoms: _26  and  _27
REMARK   17  A    between atoms: _27  and  _28
REMARK   18  A    between atoms: _32  and  _34
REMARK   19  A    between atoms: _34  and  _35
REMARK   20  A    between atoms: _34  and  _37
REMARK   21  A    between atoms: _37  and  _38
REMARK   22  A    between atoms: _38  and  _39
REMARK   23  A    between atoms: _39  and  _40
REMARK   24  A    between atoms: _40  and  _41
REMARK   25  A    between atoms: _46  and  _47
REMARK   26  A    between atoms: _52  and  _54
REMARK   27  A    between atoms: _54  and  _55
REMARK   28  A    between atoms: _54  and  _57
REMARK   29  A    between atoms: _60  and  _62
REMARK   30  A    between atoms: _62  and  _63
REMARK   31  A    between atoms: _62  and  _65
REMARK   32  A    between atoms: _65  and  _66
REMARK   33  A    between atoms: _71  and  _73
REMARK   34  A    between atoms: _73  and  _74
REMARK   35  A    between atoms: _73  and  _76
REMARK   36  A    between atoms: _76  and  _77
REMARK   37  A    between atoms: _80  and  _82
REMARK   38  A    between atoms: _82  and  _83
REMARK   39  A    between atoms: _82  and  _85
REMARK   40  A    between atoms: _85  and  _86
REMARK   41  A    between atoms: _92  and  _94
REMARK   42  A    between atoms: _94  and  _95
REMARK   43  A    between atoms: _94  and  _97
REMARK   44  A    between atoms: _97  and  _98
REMARK   45  A    between atoms: _98  and  _99
REMARK   46  A    between atoms: _99  and  _100
REMARK   47  A    between atoms: _100  and  _101
REMARK   48  A    between atoms: _105  and  _107
REMARK   49  A    between atoms: _107  and  _108
REMARK   50  A    between atoms: _107  and  _110
REMARK   51  A    between atoms: _110  and  _111
REMARK   52  A    between atoms: _116  and  _118
REMARK   53  A    between atoms: _118  and  _119
REMARK   54  A    between atoms: _118  and  _121
REMARK   55  A    between atoms: _121  and  _122
REMARK   56  A    between atoms: _125  and  _127
REMARK   57  A    between atoms: _127  and  _128
REMARK   58  A    between atoms: _127  and  _130
REMARK   59  A    between atoms: _130  and  _131
REMARK   60  A    between atoms: _134  and  _136
REMARK   61  A    between atoms: _136  and  _137
REMARK   62  A    between atoms: _136  and  _139
REMARK   63  A    between atoms: _139  and  _140
REMARK   64  A    between atoms: _143  and  _145
REMARK   65  A    between atoms: _145  and  _146
REMARK   66  A    between atoms: _145  and  _148
REMARK   67  A    between atoms: _150  and  _152
REMARK   68  A    between atoms: _152  and  _153
REMARK   69  A    between atoms: _152  and  _155
REMARK   70  A    between atoms: _155  and  _156
REMARK   71  A    between atoms: _156  and  _157
REMARK   72  A    between atoms: _157  and  _158
REMARK   73  A    between atoms: _167  and  _169
REMARK   74  A    between atoms: _169  and  _170
REMARK   75  A    between atoms: _169  and  _172
REMARK   76  A    between atoms: _172  and  _173
REMARK   77  A    between atoms: _173  and  _174
REMARK   78  A    between atoms: _174  and  _175
REMARK   79  A    between atoms: _175  and  _176
REMARK   80  A    between atoms: _180  and  _182
REMARK   81  A    between atoms: _182  and  _183
REMARK   82  A    between atoms: _182  and  _185
REMARK   83  A    between atoms: _185  and  _186
REMARK   84  A    between atoms: _191  and  _193
REMARK   85  A    between atoms: _193  and  _194
REMARK   86  A    between atoms: _193  and  _196
REMARK   87  A    between atoms: _196  and  _197
REMARK   88  A    between atoms: _200  and  _202
REMARK   89  A    between atoms: _202  and  _203
REMARK   90  A    between atoms: _206  and  _208
REMARK   91  A    between atoms: _208  and  _209
REMARK   92  A    between atoms: _208  and  _211
REMARK   93  A    between atoms: _214  and  _216
REMARK   94  A    between atoms: _216  and  _217
REMARK   95  A    between atoms: _216  and  _219
REMARK   96  A    between atoms: _219  and  _220
REMARK   97  A    between atoms: _225  and  _227
REMARK   98  A    between atoms: _227  and  _228
REMARK   99  A    between atoms: _227  and  _230
REMARK  100  A    between atoms: _230  and  _231
REMARK  101  A    between atoms: _237  and  _239
REMARK  102  A    between atoms: _239  and  _240
REMARK  103  A    between atoms: _239  and  _242
REMARK  104  A    between atoms: _242  and  _243
REMARK  105  A    between atoms: _246  and  _248
REMARK  106  A    between atoms: _248  and  _249
REMARK  107  A    between atoms: _252  and  _254
REMARK  108  A    between atoms: _254  and  _255
REMARK  109  A    between atoms: _254  and  _257
REMARK  110  A    between atoms: _257  and  _258
REMARK  111  A    between atoms: _260  and  _262
REMARK  112  A    between atoms: _262  and  _263
REMARK  113  A    between atoms: _262  and  _265
REMARK  114  A    between atoms: _269  and  _271
REMARK  115  A    between atoms: _271  and  _272
REMARK  116  A    between atoms: _271  and  _274
REMARK  117  A    between atoms: _274  and  _275
REMARK  118  A    between atoms: _275  and  _276
REMARK  119  A    between atoms: _276  and  _277
REMARK  120  A    between atoms: _277  and  _278
REMARK  121  A    between atoms: _282  and  _284
REMARK  122  A    between atoms: _284  and  _285
REMARK  123  A    between atoms: _284  and  _287
REMARK  124  A    between atoms: _287  and  _288
REMARK  125  A    between atoms: _294  and  _296
REMARK  126  A    between atoms: _296  and  _297
REMARK  127  A    between atoms: _296  and  _299
REMARK  128  A    between atoms: _299  and  _300
REMARK  129  A    between atoms: _300  and  _301
REMARK  130  A    between atoms: _301  and  _302
REMARK  131  A    between atoms: _311  and  _313
REMARK  132  A    between atoms: _313  and  _314
REMARK  133  A    between atoms: _313  and  _316
REMARK  134  A    between atoms: _316  and  _317
REMARK  135  A    between atoms: _317  and  _318
REMARK  136  A    between atoms: _323  and  _325
REMARK  137  A    between atoms: _325  and  _326
REMARK  138  A    between atoms: _325  and  _328
REMARK  139  A    between atoms: _328  and  _329
REMARK                            x       y       z     vdW  Elec       q    Type
REMARK                         _______ _______ _______ _____ _____    ______ ____
ROOT
ATOM      1  O   HOH     1      29.696  32.143  14.938  0.00  0.00    +0.000 OA
ENDROOT
TORSDOF 0
