REMARK  Name = ../refined-set-2016/4a95/4a95_pocket.pdb
REMARK  199 active torsions:
REMARK  status: ('A' for Active; 'I' for Inactive)
REMARK    1  A    between atoms: _1  and  _3
REMARK    2  A    between atoms: _3  and  _4
REMARK    3  A    between atoms: _3  and  _6
REMARK    4  A    between atoms: _6  and  _7
REMARK    5  A    between atoms: _12  and  _13
REMARK    6  A    between atoms: _15  and  _17
REMARK    7  A    between atoms: _17  and  _18
REMARK    8  A    between atoms: _17  and  _20
REMARK    9  A    between atoms: _23  and  _25
REMARK   10  A    between atoms: _25  and  _26
REMARK   11  A    between atoms: _25  and  _28
REMARK   12  A    between atoms: _28  and  _29
REMARK   13  A    between atoms: _29  and  _30
REMARK   14  A    between atoms: _33  and  _35
REMARK   15  A    between atoms: _35  and  _36
REMARK   16  A    between atoms: _35  and  _38
REMARK   17  A    between atoms: _38  and  _39
REMARK   18  A    between atoms: _42  and  _44
REMARK   19  A    between atoms: _44  and  _45
REMARK   20  A    between atoms: _44  and  _47
REMARK   21  A    between atoms: _47  and  _48
REMARK   22  A    between atoms: _51  and  _53
REMARK   23  A    between atoms: _53  and  _54
REMARK   24  A    between atoms: _53  and  _56
REMARK   25  A    between atoms: _56  and  _57
REMARK   26  A    between atoms: _60  and  _62
REMARK   27  A    between atoms: _62  and  _63
REMARK   28  A    between atoms: _62  and  _65
REMARK   29  A    between atoms: _65  and  _66
REMARK   30  A    between atoms: _71  and  _73
REMARK   31  A    between atoms: _73  and  _74
REMARK   32  A    between atoms: _73  and  _76
REMARK   33  A    between atoms: _76  and  _77
REMARK   34  A    between atoms: _80  and  _82
REMARK   35  A    between atoms: _82  and  _83
REMARK   36  A    between atoms: _82  and  _85
REMARK   37  A    between atoms: _85  and  _86
REMARK   38  A    between atoms: _92  and  _94
REMARK   39  A    between atoms: _94  and  _95
REMARK   40  A    between atoms: _94  and  _97
REMARK   41  A    between atoms: _97  and  _98
REMARK   42  A    between atoms: _98  and  _99
REMARK   43  A    between atoms: _99  and  _100
REMARK   44  A    between atoms: _109  and  _111
REMARK   45  A    between atoms: _111  and  _112
REMARK   46  A    between atoms: _111  and  _114
REMARK   47  A    between atoms: _114  and  _115
REMARK   48  A    between atoms: _121  and  _123
REMARK   49  A    between atoms: _123  and  _124
REMARK   50  A    between atoms: _123  and  _126
REMARK   51  A    between atoms: _126  and  _127
REMARK   52  A    between atoms: _132  and  _134
REMARK   53  A    between atoms: _134  and  _135
REMARK   54  A    between atoms: _138  and  _140
REMARK   55  A    between atoms: _140  and  _141
REMARK   56  A    between atoms: _143  and  _145
REMARK   57  A    between atoms: _145  and  _146
REMARK   58  A    between atoms: _145  and  _148
REMARK   59  A    between atoms: _151  and  _153
REMARK   60  A    between atoms: _153  and  _154
REMARK   61  A    between atoms: _153  and  _156
REMARK   62  A    between atoms: _156  and  _157
REMARK   63  A    between atoms: _157  and  _158
REMARK   64  A    between atoms: _158  and  _159
REMARK   65  A    between atoms: _168  and  _170
REMARK   66  A    between atoms: _170  and  _171
REMARK   67  A    between atoms: _170  and  _173
REMARK   68  A    between atoms: _173  and  _174
REMARK   69  A    between atoms: _179  and  _180
REMARK   70  A    between atoms: _182  and  _184
REMARK   71  A    between atoms: _184  and  _185
REMARK   72  A    between atoms: _184  and  _187
REMARK   73  A    between atoms: _187  and  _188
REMARK   74  A    between atoms: _193  and  _194
REMARK   75  A    between atoms: _196  and  _198
REMARK   76  A    between atoms: _198  and  _199
REMARK   77  A    between atoms: _198  and  _201
REMARK   78  A    between atoms: _201  and  _202
REMARK   79  A    between atoms: _207  and  _209
REMARK   80  A    between atoms: _209  and  _210
REMARK   81  A    between atoms: _209  and  _212
REMARK   82  A    between atoms: _212  and  _213
REMARK   83  A    between atoms: _213  and  _214
REMARK   84  A    between atoms: _214  and  _215
REMARK   85  A    between atoms: _224  and  _226
REMARK   86  A    between atoms: _226  and  _227
REMARK   87  A    between atoms: _226  and  _229
REMARK   88  A    between atoms: _229  and  _230
REMARK   89  A    between atoms: _232  and  _234
REMARK   90  A    between atoms: _234  and  _235
REMARK   91  A    between atoms: _234  and  _237
REMARK   92  A    between atoms: _237  and  _238
REMARK   93  A    between atoms: _241  and  _243
REMARK   94  A    between atoms: _243  and  _244
REMARK   95  A    between atoms: _243  and  _246
REMARK   96  A    between atoms: _246  and  _247
REMARK   97  A    between atoms: _250  and  _252
REMARK   98  A    between atoms: _252  and  _253
REMARK   99  A    between atoms: _252  and  _255
REMARK  100  A    between atoms: _255  and  _256
REMARK  101  A    between atoms: _259  and  _261
REMARK  102  A    between atoms: _261  and  _262
REMARK  103  A    between atoms: _261  and  _264
REMARK  104  A    between atoms: _264  and  _265
REMARK  105  A    between atoms: _271  and  _273
REMARK  106  A    between atoms: _273  and  _274
REMARK  107  A    between atoms: _273  and  _276
REMARK  108  A    between atoms: _276  and  _277
REMARK  109  A    between atoms: _279  and  _281
REMARK  110  A    between atoms: _281  and  _282
REMARK  111  A    between atoms: _281  and  _284
REMARK  112  A    between atoms: _284  and  _285
REMARK  113  A    between atoms: _290  and  _291
REMARK  114  A    between atoms: _293  and  _295
REMARK  115  A    between atoms: _295  and  _296
REMARK  116  A    between atoms: _295  and  _298
REMARK  117  A    between atoms: _298  and  _299
REMARK  118  A    between atoms: _303  and  _304
REMARK  119  A    between atoms: _309  and  _311
REMARK  120  A    between atoms: _311  and  _312
REMARK  121  A    between atoms: _311  and  _314
REMARK  122  A    between atoms: _314  and  _315
REMARK  123  A    between atoms: _317  and  _319
REMARK  124  A    between atoms: _319  and  _320
REMARK  125  A    between atoms: _319  and  _322
REMARK  126  A    between atoms: _322  and  _323
REMARK  127  A    between atoms: _323  and  _324
REMARK  128  A    between atoms: _329  and  _331
REMARK  129  A    between atoms: _331  and  _332
REMARK  130  A    between atoms: _331  and  _334
REMARK  131  A    between atoms: _334  and  _335
REMARK  132  A    between atoms: _338  and  _340
REMARK  133  A    between atoms: _340  and  _341
REMARK  134  A    between atoms: _340  and  _343
REMARK  135  A    between atoms: _343  and  _344
REMARK  136  A    between atoms: _347  and  _349
REMARK  137  A    between atoms: _349  and  _350
REMARK  138  A    between atoms: _349  and  _352
REMARK  139  A    between atoms: _352  and  _353
REMARK  140  A    between atoms: _356  and  _358
REMARK  141  A    between atoms: _358  and  _359
REMARK  142  A    between atoms: _358  and  _361
REMARK  143  A    between atoms: _361  and  _362
REMARK  144  A    between atoms: _365  and  _367
REMARK  145  A    between atoms: _367  and  _368
REMARK  146  A    between atoms: _367  and  _370
REMARK  147  A    between atoms: _370  and  _371
REMARK  148  A    between atoms: _376  and  _378
REMARK  149  A    between atoms: _378  and  _379
REMARK  150  A    between atoms: _382  and  _384
REMARK  151  A    between atoms: _384  and  _385
REMARK  152  A    between atoms: _388  and  _390
REMARK  153  A    between atoms: _390  and  _391
REMARK  154  A    between atoms: _390  and  _393
REMARK  155  A    between atoms: _393  and  _394
REMARK  156  A    between atoms: _399  and  _400
REMARK  157  A    between atoms: _402  and  _404
REMARK  158  A    between atoms: _404  and  _405
REMARK  159  A    between atoms: _404  and  _407
REMARK  160  A    between atoms: _407  and  _408
REMARK  161  A    between atoms: _410  and  _412
REMARK  162  A    between atoms: _412  and  _413
REMARK  163  A    between atoms: _412  and  _415
REMARK  164  A    between atoms: _415  and  _416
REMARK  165  A    between atoms: _419  and  _421
REMARK  166  A    between atoms: _421  and  _422
REMARK  167  A    between atoms: _421  and  _424
REMARK  168  A    between atoms: _427  and  _429
REMARK  169  A    between atoms: _429  and  _430
REMARK  170  A    between atoms: _429  and  _432
REMARK  171  A    between atoms: _432  and  _433
REMARK  172  A    between atoms: _439  and  _441
REMARK  173  A    between atoms: _441  and  _442
REMARK  174  A    between atoms: _441  and  _444
REMARK  175  A    between atoms: _444  and  _445
REMARK  176  A    between atoms: _450  and  _452
REMARK  177  A    between atoms: _452  and  _453
REMARK  178  A    between atoms: _456  and  _458
REMARK  179  A    between atoms: _458  and  _459
REMARK  180  A    between atoms: _458  and  _461
REMARK  181  A    between atoms: _461  and  _462
REMARK  182  A    between atoms: _465  and  _467
REMARK  183  A    between atoms: _467  and  _468
REMARK  184  A    between atoms: _470  and  _472
REMARK  185  A    between atoms: _472  and  _473
REMARK  186  A    between atoms: _475  and  _477
REMARK  187  A    between atoms: _477  and  _478
REMARK  188  A    between atoms: _477  and  _480
REMARK  189  A    between atoms: _480  and  _481
REMARK  190  A    between atoms: _484  and  _486
REMARK  191  A    between atoms: _486  and  _487
REMARK  192  A    between atoms: _489  and  _491
REMARK  193  A    between atoms: _491  and  _492
REMARK  194  A    between atoms: _491  and  _494
REMARK  195  A    between atoms: _494  and  _495
REMARK  196  A    between atoms: _497  and  _499
REMARK  197  A    between atoms: _499  and  _500
REMARK  198  A    between atoms: _499  and  _502
REMARK  199  A    between atoms: _502  and  _503
REMARK                            x       y       z     vdW  Elec       q    Type
REMARK                         _______ _______ _______ _____ _____    ______ ____
ROOT
ATOM      1  CA  ASN A   7      27.781  55.664  60.434  0.00  0.00    +0.158 C 
ENDROOT
BRANCH   1   2
ATOM      2  C   ASN A   7      26.467  56.388  60.727  0.00  0.00    +0.241 C 
ATOM      3  O   ASN A   7      26.460  57.552  61.136  0.00  0.00    -0.273 OA
ATOM      4  N   ILE A   8      25.358  55.696  60.518  0.00  0.00    -0.297 N 
ATOM      5  H   ILE A   8      25.423  54.779  60.032  0.00  0.00    +0.150 HD
BRANCH   4   6
ATOM      6  CA  ILE A   8      24.067  56.167  60.938  0.00  0.00    +0.149 C 
BRANCH   6   7
ATOM      7  C   ILE A   8      23.880  55.839  62.441  0.00  0.00    +0.241 C 
ATOM      8  O   ILE A   8      23.200  56.595  63.189  0.00  0.00    -0.273 OA
ATOM      9  N   PHE A   9      24.383  54.656  62.829  0.00  0.00    -0.297 N 
ATOM     10  H   PHE A   9      25.006  54.133  62.181  0.00  0.00    +0.150 HD
BRANCH   9  11
ATOM     11  CA  PHE A   9      24.072  54.077  64.159  0.00  0.00    +0.153 C 
BRANCH  11  12
ATOM     12  C   PHE A   9      25.388  53.711  64.865  0.00  0.00    +0.241 C 
ATOM     13  N   ARG A  10      25.323  53.673  66.181  0.00  0.00    -0.297 N 
ATOM     14  H   ARG A  10      24.542  54.177  66.647  0.00  0.00    +0.150 HD
ATOM     15  O   PHE A   9      26.369  53.376  64.240  0.00  0.00    -0.273 OA
BRANCH  13  16
ATOM     16  CA  ARG A  10      26.278  52.969  67.018  0.00  0.00    +0.149 C 
BRANCH  16  17
ATOM     17  C   ARG A  10      25.547  52.108  68.035  0.00  0.00    +0.241 C 
ATOM     18  O   ARG A  10      24.695  52.552  68.677  0.00  0.00    -0.273 OA
ATOM     19  N   PHE A  11      25.928  50.853  68.127  0.00  0.00    -0.297 N 
ATOM     20  H   PHE A  11      26.676  50.465  67.517  0.00  0.00    +0.150 HD
BRANCH  19  21
ATOM     21  CA  PHE A  11      25.250  50.025  69.130  0.00  0.00    +0.153 C 
BRANCH  21  22
ATOM     22  C   PHE A  11      25.371  50.641  70.533  0.00  0.00    +0.241 C 
ATOM     23  N   ASN A  12      24.312  50.521  71.326  0.00  0.00    -0.298 N 
ATOM     24  H   ASN A  12      23.476  50.008  70.979  0.00  0.00    +0.150 HD
ATOM     25  O   PHE A  11      26.413  51.295  70.874  0.00  0.00    -0.273 OA
BRANCH  23  26
ATOM     26  CA  ASN A  12      24.288  51.086  72.666  0.00  0.00    +0.146 C 
BRANCH  26  27
ATOM     27  C   ASN A  12      23.748  50.085  73.705  0.00  0.00    +0.227 C 
ATOM     28  O   ASN A  12      22.635  50.220  74.228  0.00  0.00    -0.286 OA
ENDBRANCH  26  27
BRANCH  26  29
ATOM     29  CB  ASN A  12      23.475  52.403  72.548  0.00  0.00    +0.112 C 
BRANCH  29  30
ATOM     30  CG  ASN A  12      23.364  53.240  73.818  0.00  0.00    +0.222 C 
ATOM     31  ND2 ASN A  12      24.256  53.107  74.790  0.00  0.00    -0.329 N 
ATOM     32 HD21 ASN A  12      24.151  53.651  75.670  0.00  0.00    +0.145 HD
ATOM     33 HD22 ASN A  12      25.060  52.458  74.672  0.00  0.00    +0.145 HD
ATOM     34  OD1 ASN A  12      22.396  53.995  73.911  0.00  0.00    -0.275 OA
ENDBRANCH  29  30
ENDBRANCH  26  29
ENDBRANCH  23  26
ENDBRANCH  21  22
BRANCH  21  35
ATOM     35  CB  PHE A  11      25.944  48.649  69.193  0.00  0.00    +0.055 C 
BRANCH  35  36
ATOM     36  CG  PHE A  11      25.650  47.741  68.031  0.00  0.00    -0.020 A 
ATOM     37  CD2 PHE A  11      24.326  47.480  67.600  0.00  0.00    -0.004 A 
ATOM     38  CE2 PHE A  11      24.067  46.584  66.550  0.00  0.00    -0.000 A 
ATOM     39  CZ  PHE A  11      25.135  45.875  65.875  0.00  0.00    -0.000 A 
ATOM     40  CE1 PHE A  11      26.472  46.086  66.323  0.00  0.00    -0.000 A 
ATOM     41  CD1 PHE A  11      26.690  47.033  67.405  0.00  0.00    -0.004 A 
ENDBRANCH  35  36
ENDBRANCH  21  35
ENDBRANCH  19  21
ENDBRANCH  16  17
BRANCH  16  42
ATOM     42  CB  ARG A  10      27.234  53.938  67.763  0.00  0.00    +0.033 C 
BRANCH  42  43
ATOM     43  CG  ARG A  10      28.378  53.269  68.463  0.00  0.00    +0.045 C 
BRANCH  43  44
ATOM     44  CD  ARG A  10      29.384  54.225  69.145  0.00  0.00    +0.174 C 
BRANCH  44  45
ATOM     45  NE  ARG A  10      29.704  55.380  68.354  0.00  0.00    -0.265 N 
ATOM     46  CZ  ARG A  10      29.546  56.643  68.691  0.00  0.00    +0.342 C 
ATOM     47  NH2 ARG A  10      29.095  57.002  69.851  0.00  0.00    -0.292 N 
ATOM     48 HH21 ARG A  10      28.843  56.281  70.557  0.00  0.00    +0.255 HD
ATOM     49 HH22 ARG A  10      28.985  58.011  70.077  0.00  0.00    +0.255 HD
ATOM     50  NH1 ARG A  10      29.845  57.563  67.835  0.00  0.00    -0.292 N 
ATOM     51 HH11 ARG A  10      29.726  58.565  68.086  0.00  0.00    +0.255 HD
ATOM     52 HH12 ARG A  10      30.205  57.301  66.895  0.00  0.00    +0.255 HD
ATOM     53  HE  ARG A  10      30.105  55.199  67.411  0.00  0.00    +0.259 HD
ENDBRANCH  44  45
ENDBRANCH  43  44
ENDBRANCH  42  43
ENDBRANCH  16  42
ENDBRANCH  13  16
ENDBRANCH  11  12
BRANCH  11  54
ATOM     54  CB  PHE A   9      23.348  52.754  63.941  0.00  0.00    +0.055 C 
BRANCH  54  55
ATOM     55  CG  PHE A   9      21.992  52.897  63.264  0.00  0.00    -0.020 A 
ATOM     56  CD2 PHE A   9      20.985  53.613  63.900  0.00  0.00    -0.004 A 
ATOM     57  CE2 PHE A   9      19.714  53.737  63.333  0.00  0.00    -0.000 A 
ATOM     58  CZ  PHE A   9      19.434  53.144  62.064  0.00  0.00    -0.000 A 
ATOM     59  CE1 PHE A   9      20.446  52.382  61.420  0.00  0.00    -0.000 A 
ATOM     60  CD1 PHE A   9      21.736  52.283  62.041  0.00  0.00    -0.004 A 
ENDBRANCH  54  55
ENDBRANCH  11  54
ENDBRANCH   9  11
ENDBRANCH   6   7
BRANCH   6  61
ATOM     61  CB  ILE A   8      22.919  55.442  60.104  0.00  0.00    +0.027 C 
ATOM     62  CG2 ILE A   8      21.570  55.773  60.645  0.00  0.00    +0.002 C 
BRANCH  61  63
ATOM     63  CG1 ILE A   8      22.996  55.750  58.586  0.00  0.00    +0.002 C 
ATOM     64  CD1 ILE A   8      21.956  54.935  57.716  0.00  0.00    +0.000 C 
ENDBRANCH  61  63
ENDBRANCH   6  61
ENDBRANCH   4   6
ENDBRANCH   1   2
BRANCH   1  66
ATOM     65  C   ASP A   6      27.251  55.286  58.008  0.00  0.00    +0.241 C 
ATOM     66  N   ASN A   7      27.776  54.877  59.172  0.00  0.00    -0.297 N 
ATOM     67  H   ASN A   7      28.215  53.934  59.194  0.00  0.00    +0.150 HD
ATOM     68  O   ASP A   6      26.880  56.444  57.811  0.00  0.00    -0.273 OA
BRANCH  65  69
ATOM     69  CA  ASP A   6      27.232  54.270  56.839  0.00  0.00    +0.160 C 
BRANCH  69  71
ATOM     70  C   ASP A   5      28.952  52.554  57.120  0.00  0.00    +0.241 C 
ATOM     71  N   ASP A   6      27.677  52.928  57.173  0.00  0.00    -0.297 N 
ATOM     72  H   ASP A   6      26.966  52.228  57.467  0.00  0.00    +0.150 HD
ATOM     73  O   ASP A   5      29.878  53.302  56.837  0.00  0.00    -0.273 OA
BRANCH  70  74
ATOM     74  CA  ASP A   5      29.237  51.127  57.494  0.00  0.00    +0.160 C 
BRANCH  74  77
ATOM     75  C   ASP A   4      28.203  51.278  59.782  0.00  0.00    +0.241 C 
ATOM     76  O   ASP A   4      28.691  52.379  60.052  0.00  0.00    -0.273 OA
ATOM     77  N   ASP A   5      28.428  50.618  58.631  0.00  0.00    -0.297 N 
ATOM     78  H   ASP A   5      28.001  49.675  58.529  0.00  0.00    +0.150 HD
BRANCH  75  79
ATOM     79  CA  ASP A   4      27.313  50.565  60.823  0.00  0.00    +0.160 C 
BRANCH  79  82
ATOM     80  C   GLU A   3      28.743  50.935  62.697  0.00  0.00    +0.241 C 
ATOM     81  O   GLU A   3      29.603  50.200  62.200  0.00  0.00    -0.273 OA
ATOM     82  N   ASP A   4      27.588  51.167  62.105  0.00  0.00    -0.297 N 
ATOM     83  H   ASP A   4      26.880  51.779  62.559  0.00  0.00    +0.150 HD
BRANCH  80  84
ATOM     84  CA  GLU A   3      28.991  51.630  63.998  0.00  0.00    +0.149 C 
BRANCH  84  87
ATOM     85  C   VAL A   2      29.598  50.308  65.981  0.00  0.00    +0.241 C 
ATOM     86  O   VAL A   2      28.514  50.519  66.544  0.00  0.00    -0.273 OA
ATOM     87  N   GLU A   3      29.903  50.812  64.764  0.00  0.00    -0.297 N 
ATOM     88  H   GLU A   3      30.838  50.601  64.360  0.00  0.00    +0.150 HD
BRANCH  85  89
ATOM     89  CA  VAL A   2      30.613  49.350  66.593  0.00  0.00    +0.148 C 
BRANCH  89  91
ATOM     90  C   TYR A   1      31.315  50.674  68.597  0.00  0.00    +0.239 C 
ATOM     91  N   VAL A   2      30.916  49.532  68.022  0.00  0.00    -0.297 N 
ATOM     92  H   VAL A   2      30.811  48.701  68.639  0.00  0.00    +0.150 HD
ATOM     93  O   TYR A   1      31.422  51.714  67.990  0.00  0.00    -0.274 OA
BRANCH  90  94
ATOM     94  CA  TYR A   1      31.742  50.614  70.070  0.00  0.00    +0.149 C 
BRANCH  94  95
ATOM     95  N   TYR A   1      31.902  51.998  70.568  0.00  0.00    -0.238 NA
ATOM     96  H   TYR A   1      31.108  52.523  70.988  0.00  0.00    +0.142 HD
ENDBRANCH  94  95
BRANCH  94  97
ATOM     97  CB  TYR A   1      30.813  49.837  70.974  0.00  0.00    +0.053 C 
BRANCH  97  98
ATOM     98  CG  TYR A   1      30.927  48.301  70.888  0.00  0.00    -0.020 A 
ATOM     99  CD2 TYR A   1      32.121  47.679  71.048  0.00  0.00    -0.001 A 
ATOM    100  CE2 TYR A   1      32.227  46.271  70.976  0.00  0.00    +0.036 A 
ATOM    101  CZ  TYR A   1      31.131  45.525  70.805  0.00  0.00    +0.134 A 
ATOM    102  CE1 TYR A   1      29.868  46.123  70.702  0.00  0.00    +0.036 A 
ATOM    103  CD1 TYR A   1      29.777  47.538  70.746  0.00  0.00    -0.001 A 
BRANCH 101 104
ATOM    104  OH  TYR A   1      31.195  44.144  70.750  0.00  0.00    -0.506 OA
ATOM    105  HH  TYR A   1      30.829  43.832  69.885  0.00  0.00    +0.292 HD
ENDBRANCH 101 104
ENDBRANCH  97  98
ENDBRANCH  94  97
ENDBRANCH  90  94
ENDBRANCH  89  91
BRANCH  89 106
ATOM    106  CB  VAL A   2      30.028  47.893  66.264  0.00  0.00    +0.027 C 
ATOM    107  CG2 VAL A   2      30.802  46.724  66.936  0.00  0.00    +0.002 C 
ATOM    108  CG1 VAL A   2      30.046  47.688  64.798  0.00  0.00    +0.002 C 
ENDBRANCH  89 106
ENDBRANCH  85  89
ENDBRANCH  84  87
BRANCH  84 109
ATOM    109  CB  GLU A   3      29.607  53.030  63.748  0.00  0.00    +0.041 C 
BRANCH 109 110
ATOM    110  CG  GLU A   3      29.979  53.722  65.012  0.00  0.00    +0.116 C 
BRANCH 110 111
ATOM    111  CD  GLU A   3      30.638  55.090  64.814  0.00  0.00    +0.365 C 
ATOM    112  OE2 GLU A   3      30.905  55.711  65.847  0.00  0.00    -0.246 OA
ATOM    113  OE1 GLU A   3      30.870  55.558  63.660  0.00  0.00    -0.246 OA
ENDBRANCH 110 111
ENDBRANCH 109 110
ENDBRANCH  84 109
ENDBRANCH  80  84
ENDBRANCH  79  82
BRANCH  79 114
ATOM    114  CB  ASP A   4      25.814  50.717  60.569  0.00  0.00    +0.143 C 
BRANCH 114 115
ATOM    115  CG  ASP A   4      25.428  52.169  60.222  0.00  0.00    +0.367 C 
ATOM    116  OD2 ASP A   4      25.535  53.063  61.063  0.00  0.00    -0.246 OA
ATOM    117  OD1 ASP A   4      25.038  52.390  59.061  0.00  0.00    -0.246 OA
ENDBRANCH 114 115
ENDBRANCH  79 114
ENDBRANCH  75  79
ENDBRANCH  74  77
BRANCH  74 118
ATOM    118  CB  ASP A   5      29.090  50.241  56.253  0.00  0.00    +0.143 C 
BRANCH 118 119
ATOM    119  CG  ASP A   5      30.014  49.005  56.299  0.00  0.00    +0.367 C 
ATOM    120  OD2 ASP A   5      30.019  48.314  57.354  0.00  0.00    -0.246 OA
ATOM    121  OD1 ASP A   5      30.725  48.726  55.283  0.00  0.00    -0.246 OA
ENDBRANCH 118 119
ENDBRANCH  74 118
ENDBRANCH  70  74
ENDBRANCH  69  71
BRANCH  69 122
ATOM    122  CB  ASP A   6      25.867  54.175  56.136  0.00  0.00    +0.143 C 
BRANCH 122 123
ATOM    123  CG  ASP A   6      26.008  53.832  54.632  0.00  0.00    +0.367 C 
ATOM    124  OD2 ASP A   6      25.645  52.714  54.173  0.00  0.00    -0.246 OA
ATOM    125  OD1 ASP A   6      26.496  54.701  53.887  0.00  0.00    -0.246 OA
ENDBRANCH 122 123
ENDBRANCH  69 122
ENDBRANCH  65  69
ENDBRANCH   1  66
BRANCH   1 126
ATOM    126  CB  ASN A   7      29.023  56.604  60.624  0.00  0.00    +0.114 C 
BRANCH 126 127
ATOM    127  CG  ASN A   7      30.307  55.948  60.193  0.00  0.00    +0.222 C 
ATOM    128  ND2 ASN A   7      30.875  55.070  61.033  0.00  0.00    -0.329 N 
ATOM    129 HD21 ASN A   7      30.459  54.905  61.972  0.00  0.00    +0.145 HD
ATOM    130 HD22 ASN A   7      31.731  54.554  60.745  0.00  0.00    +0.145 HD
ATOM    131  OD1 ASN A   7      30.760  56.181  59.067  0.00  0.00    -0.275 OA
ENDBRANCH 126 127
ENDBRANCH   1 126
TORSDOF 51
REMARK  Name = ../refined-set-2016/4a95/4a95_pocket.pdb
REMARK  199 active torsions:
REMARK  status: ('A' for Active; 'I' for Inactive)
REMARK    1  A    between atoms: _1  and  _3
REMARK    2  A    between atoms: _3  and  _4
REMARK    3  A    between atoms: _3  and  _6
REMARK    4  A    between atoms: _6  and  _7
REMARK    5  A    between atoms: _12  and  _13
REMARK    6  A    between atoms: _15  and  _17
REMARK    7  A    between atoms: _17  and  _18
REMARK    8  A    between atoms: _17  and  _20
REMARK    9  A    between atoms: _23  and  _25
REMARK   10  A    between atoms: _25  and  _26
REMARK   11  A    between atoms: _25  and  _28
REMARK   12  A    between atoms: _28  and  _29
REMARK   13  A    between atoms: _29  and  _30
REMARK   14  A    between atoms: _33  and  _35
REMARK   15  A    between atoms: _35  and  _36
REMARK   16  A    between atoms: _35  and  _38
REMARK   17  A    between atoms: _38  and  _39
REMARK   18  A    between atoms: _42  and  _44
REMARK   19  A    between atoms: _44  and  _45
REMARK   20  A    between atoms: _44  and  _47
REMARK   21  A    between atoms: _47  and  _48
REMARK   22  A    between atoms: _51  and  _53
REMARK   23  A    between atoms: _53  and  _54
REMARK   24  A    between atoms: _53  and  _56
REMARK   25  A    between atoms: _56  and  _57
REMARK   26  A    between atoms: _60  and  _62
REMARK   27  A    between atoms: _62  and  _63
REMARK   28  A    between atoms: _62  and  _65
REMARK   29  A    between atoms: _65  and  _66
REMARK   30  A    between atoms: _71  and  _73
REMARK   31  A    between atoms: _73  and  _74
REMARK   32  A    between atoms: _73  and  _76
REMARK   33  A    between atoms: _76  and  _77
REMARK   34  A    between atoms: _80  and  _82
REMARK   35  A    between atoms: _82  and  _83
REMARK   36  A    between atoms: _82  and  _85
REMARK   37  A    between atoms: _85  and  _86
REMARK   38  A    between atoms: _92  and  _94
REMARK   39  A    between atoms: _94  and  _95
REMARK   40  A    between atoms: _94  and  _97
REMARK   41  A    between atoms: _97  and  _98
REMARK   42  A    between atoms: _98  and  _99
REMARK   43  A    between atoms: _99  and  _100
REMARK   44  A    between atoms: _109  and  _111
REMARK   45  A    between atoms: _111  and  _112
REMARK   46  A    between atoms: _111  and  _114
REMARK   47  A    between atoms: _114  and  _115
REMARK   48  A    between atoms: _121  and  _123
REMARK   49  A    between atoms: _123  and  _124
REMARK   50  A    between atoms: _123  and  _126
REMARK   51  A    between atoms: _126  and  _127
REMARK   52  A    between atoms: _132  and  _134
REMARK   53  A    between atoms: _134  and  _135
REMARK   54  A    between atoms: _138  and  _140
REMARK   55  A    between atoms: _140  and  _141
REMARK   56  A    between atoms: _143  and  _145
REMARK   57  A    between atoms: _145  and  _146
REMARK   58  A    between atoms: _145  and  _148
REMARK   59  A    between atoms: _151  and  _153
REMARK   60  A    between atoms: _153  and  _154
REMARK   61  A    between atoms: _153  and  _156
REMARK   62  A    between atoms: _156  and  _157
REMARK   63  A    between atoms: _157  and  _158
REMARK   64  A    between atoms: _158  and  _159
REMARK   65  A    between atoms: _168  and  _170
REMARK   66  A    between atoms: _170  and  _171
REMARK   67  A    between atoms: _170  and  _173
REMARK   68  A    between atoms: _173  and  _174
REMARK   69  A    between atoms: _179  and  _180
REMARK   70  A    between atoms: _182  and  _184
REMARK   71  A    between atoms: _184  and  _185
REMARK   72  A    between atoms: _184  and  _187
REMARK   73  A    between atoms: _187  and  _188
REMARK   74  A    between atoms: _193  and  _194
REMARK   75  A    between atoms: _196  and  _198
REMARK   76  A    between atoms: _198  and  _199
REMARK   77  A    between atoms: _198  and  _201
REMARK   78  A    between atoms: _201  and  _202
REMARK   79  A    between atoms: _207  and  _209
REMARK   80  A    between atoms: _209  and  _210
REMARK   81  A    between atoms: _209  and  _212
REMARK   82  A    between atoms: _212  and  _213
REMARK   83  A    between atoms: _213  and  _214
REMARK   84  A    between atoms: _214  and  _215
REMARK   85  A    between atoms: _224  and  _226
REMARK   86  A    between atoms: _226  and  _227
REMARK   87  A    between atoms: _226  and  _229
REMARK   88  A    between atoms: _229  and  _230
REMARK   89  A    between atoms: _232  and  _234
REMARK   90  A    between atoms: _234  and  _235
REMARK   91  A    between atoms: _234  and  _237
REMARK   92  A    between atoms: _237  and  _238
REMARK   93  A    between atoms: _241  and  _243
REMARK   94  A    between atoms: _243  and  _244
REMARK   95  A    between atoms: _243  and  _246
REMARK   96  A    between atoms: _246  and  _247
REMARK   97  A    between atoms: _250  and  _252
REMARK   98  A    between atoms: _252  and  _253
REMARK   99  A    between atoms: _252  and  _255
REMARK  100  A    between atoms: _255  and  _256
REMARK  101  A    between atoms: _259  and  _261
REMARK  102  A    between atoms: _261  and  _262
REMARK  103  A    between atoms: _261  and  _264
REMARK  104  A    between atoms: _264  and  _265
REMARK  105  A    between atoms: _271  and  _273
REMARK  106  A    between atoms: _273  and  _274
REMARK  107  A    between atoms: _273  and  _276
REMARK  108  A    between atoms: _276  and  _277
REMARK  109  A    between atoms: _279  and  _281
REMARK  110  A    between atoms: _281  and  _282
REMARK  111  A    between atoms: _281  and  _284
REMARK  112  A    between atoms: _284  and  _285
REMARK  113  A    between atoms: _290  and  _291
REMARK  114  A    between atoms: _293  and  _295
REMARK  115  A    between atoms: _295  and  _296
REMARK  116  A    between atoms: _295  and  _298
REMARK  117  A    between atoms: _298  and  _299
REMARK  118  A    between atoms: _303  and  _304
REMARK  119  A    between atoms: _309  and  _311
REMARK  120  A    between atoms: _311  and  _312
REMARK  121  A    between atoms: _311  and  _314
REMARK  122  A    between atoms: _314  and  _315
REMARK  123  A    between atoms: _317  and  _319
REMARK  124  A    between atoms: _319  and  _320
REMARK  125  A    between atoms: _319  and  _322
REMARK  126  A    between atoms: _322  and  _323
REMARK  127  A    between atoms: _323  and  _324
REMARK  128  A    between atoms: _329  and  _331
REMARK  129  A    between atoms: _331  and  _332
REMARK  130  A    between atoms: _331  and  _334
REMARK  131  A    between atoms: _334  and  _335
REMARK  132  A    between atoms: _338  and  _340
REMARK  133  A    between atoms: _340  and  _341
REMARK  134  A    between atoms: _340  and  _343
REMARK  135  A    between atoms: _343  and  _344
REMARK  136  A    between atoms: _347  and  _349
REMARK  137  A    between atoms: _349  and  _350
REMARK  138  A    between atoms: _349  and  _352
REMARK  139  A    between atoms: _352  and  _353
REMARK  140  A    between atoms: _356  and  _358
REMARK  141  A    between atoms: _358  and  _359
REMARK  142  A    between atoms: _358  and  _361
REMARK  143  A    between atoms: _361  and  _362
REMARK  144  A    between atoms: _365  and  _367
REMARK  145  A    between atoms: _367  and  _368
REMARK  146  A    between atoms: _367  and  _370
REMARK  147  A    between atoms: _370  and  _371
REMARK  148  A    between atoms: _376  and  _378
REMARK  149  A    between atoms: _378  and  _379
REMARK  150  A    between atoms: _382  and  _384
REMARK  151  A    between atoms: _384  and  _385
REMARK  152  A    between atoms: _388  and  _390
REMARK  153  A    between atoms: _390  and  _391
REMARK  154  A    between atoms: _390  and  _393
REMARK  155  A    between atoms: _393  and  _394
REMARK  156  A    between atoms: _399  and  _400
REMARK  157  A    between atoms: _402  and  _404
REMARK  158  A    between atoms: _404  and  _405
REMARK  159  A    between atoms: _404  and  _407
REMARK  160  A    between atoms: _407  and  _408
REMARK  161  A    between atoms: _410  and  _412
REMARK  162  A    between atoms: _412  and  _413
REMARK  163  A    between atoms: _412  and  _415
REMARK  164  A    between atoms: _415  and  _416
REMARK  165  A    between atoms: _419  and  _421
REMARK  166  A    between atoms: _421  and  _422
REMARK  167  A    between atoms: _421  and  _424
REMARK  168  A    between atoms: _427  and  _429
REMARK  169  A    between atoms: _429  and  _430
REMARK  170  A    between atoms: _429  and  _432
REMARK  171  A    between atoms: _432  and  _433
REMARK  172  A    between atoms: _439  and  _441
REMARK  173  A    between atoms: _441  and  _442
REMARK  174  A    between atoms: _441  and  _444
REMARK  175  A    between atoms: _444  and  _445
REMARK  176  A    between atoms: _450  and  _452
REMARK  177  A    between atoms: _452  and  _453
REMARK  178  A    between atoms: _456  and  _458
REMARK  179  A    between atoms: _458  and  _459
REMARK  180  A    between atoms: _458  and  _461
REMARK  181  A    between atoms: _461  and  _462
REMARK  182  A    between atoms: _465  and  _467
REMARK  183  A    between atoms: _467  and  _468
REMARK  184  A    between atoms: _470  and  _472
REMARK  185  A    between atoms: _472  and  _473
REMARK  186  A    between atoms: _475  and  _477
REMARK  187  A    between atoms: _477  and  _478
REMARK  188  A    between atoms: _477  and  _480
REMARK  189  A    between atoms: _480  and  _481
REMARK  190  A    between atoms: _484  and  _486
REMARK  191  A    between atoms: _486  and  _487
REMARK  192  A    between atoms: _489  and  _491
REMARK  193  A    between atoms: _491  and  _492
REMARK  194  A    between atoms: _491  and  _494
REMARK  195  A    between atoms: _494  and  _495
REMARK  196  A    between atoms: _497  and  _499
REMARK  197  A    between atoms: _499  and  _500
REMARK  198  A    between atoms: _499  and  _502
REMARK  199  A    between atoms: _502  and  _503
REMARK                            x       y       z     vdW  Elec       q    Type
REMARK                         _______ _______ _______ _____ _____    ______ ____
ROOT
ATOM      1  C   GLY A   2      32.063  42.263  60.001  0.00  0.00    +0.243 C 
ATOM      2  N   VAL A   3      33.293  42.325  60.482  0.00  0.00    -0.298 N 
ATOM      3  H   VAL A   3      33.430  42.348  61.513  0.00  0.00    +0.150 HD
ATOM      4  O   GLY A   2      31.818  42.350  58.833  0.00  0.00    -0.273 OA
ENDROOT
BRANCH   1   5
ATOM      5  CA  GLY A   2      30.967  42.165  60.977  0.00  0.00    +0.176 C 
BRANCH   5   7
ATOM      6  C   ALA A   1      31.722  40.437  62.531  0.00  0.00    +0.238 C 
ATOM      7  N   GLY A   2      31.415  41.706  62.285  0.00  0.00    -0.296 N 
ATOM      8  H   GLY A   2      31.498  42.399  63.056  0.00  0.00    +0.150 HD
ATOM      9  O   ALA A   1      31.517  39.493  61.735  0.00  0.00    -0.274 OA
BRANCH   6  10
ATOM     10  CA  ALA A   1      32.354  40.189  63.880  0.00  0.00    +0.145 C 
ATOM     11  CB  ALA A   1      33.960  40.338  63.762  0.00  0.00    +0.028 C 
BRANCH  10  12
ATOM     12  N   ALA A   1      31.992  38.782  64.176  0.00  0.00    -0.238 NA
ATOM     13  H   ALA A   1      31.700  38.141  63.411  0.00  0.00    +0.142 HD
ENDBRANCH  10  12
ENDBRANCH   6  10
ENDBRANCH   5   7
ENDBRANCH   1   5
BRANCH   2  14
ATOM     14  CA  VAL A   3      34.470  42.362  59.610  0.00  0.00    +0.137 C 
BRANCH  14  15
ATOM     15  CB  VAL A   3      35.670  43.194  60.230  0.00  0.00    +0.026 C 
ATOM     16  CG2 VAL A   3      36.055  42.682  61.641  0.00  0.00    +0.002 C 
ATOM     17  CG1 VAL A   3      35.406  44.680  60.239  0.00  0.00    +0.002 C 
ENDBRANCH  14  15
BRANCH  14  18
ATOM     18  C   VAL A   3      34.942  40.971  59.219  0.00  0.00    +0.227 C 
ATOM     19  O   VAL A   3      34.803  39.929  59.955  0.00  0.00    -0.286 OA
ENDBRANCH  14  18
ENDBRANCH   2  14
TORSDOF 7
REMARK  Name = ../refined-set-2016/4a95/4a95_pocket.pdb
REMARK  199 active torsions:
REMARK  status: ('A' for Active; 'I' for Inactive)
REMARK    1  A    between atoms: _1  and  _3
REMARK    2  A    between atoms: _3  and  _4
REMARK    3  A    between atoms: _3  and  _6
REMARK    4  A    between atoms: _6  and  _7
REMARK    5  A    between atoms: _12  and  _13
REMARK    6  A    between atoms: _15  and  _17
REMARK    7  A    between atoms: _17  and  _18
REMARK    8  A    between atoms: _17  and  _20
REMARK    9  A    between atoms: _23  and  _25
REMARK   10  A    between atoms: _25  and  _26
REMARK   11  A    between atoms: _25  and  _28
REMARK   12  A    between atoms: _28  and  _29
REMARK   13  A    between atoms: _29  and  _30
REMARK   14  A    between atoms: _33  and  _35
REMARK   15  A    between atoms: _35  and  _36
REMARK   16  A    between atoms: _35  and  _38
REMARK   17  A    between atoms: _38  and  _39
REMARK   18  A    between atoms: _42  and  _44
REMARK   19  A    between atoms: _44  and  _45
REMARK   20  A    between atoms: _44  and  _47
REMARK   21  A    between atoms: _47  and  _48
REMARK   22  A    between atoms: _51  and  _53
REMARK   23  A    between atoms: _53  and  _54
REMARK   24  A    between atoms: _53  and  _56
REMARK   25  A    between atoms: _56  and  _57
REMARK   26  A    between atoms: _60  and  _62
REMARK   27  A    between atoms: _62  and  _63
REMARK   28  A    between atoms: _62  and  _65
REMARK   29  A    between atoms: _65  and  _66
REMARK   30  A    between atoms: _71  and  _73
REMARK   31  A    between atoms: _73  and  _74
REMARK   32  A    between atoms: _73  and  _76
REMARK   33  A    between atoms: _76  and  _77
REMARK   34  A    between atoms: _80  and  _82
REMARK   35  A    between atoms: _82  and  _83
REMARK   36  A    between atoms: _82  and  _85
REMARK   37  A    between atoms: _85  and  _86
REMARK   38  A    between atoms: _92  and  _94
REMARK   39  A    between atoms: _94  and  _95
REMARK   40  A    between atoms: _94  and  _97
REMARK   41  A    between atoms: _97  and  _98
REMARK   42  A    between atoms: _98  and  _99
REMARK   43  A    between atoms: _99  and  _100
REMARK   44  A    between atoms: _109  and  _111
REMARK   45  A    between atoms: _111  and  _112
REMARK   46  A    between atoms: _111  and  _114
REMARK   47  A    between atoms: _114  and  _115
REMARK   48  A    between atoms: _121  and  _123
REMARK   49  A    between atoms: _123  and  _124
REMARK   50  A    between atoms: _123  and  _126
REMARK   51  A    between atoms: _126  and  _127
REMARK   52  A    between atoms: _132  and  _134
REMARK   53  A    between atoms: _134  and  _135
REMARK   54  A    between atoms: _138  and  _140
REMARK   55  A    between atoms: _140  and  _141
REMARK   56  A    between atoms: _143  and  _145
REMARK   57  A    between atoms: _145  and  _146
REMARK   58  A    between atoms: _145  and  _148
REMARK   59  A    between atoms: _151  and  _153
REMARK   60  A    between atoms: _153  and  _154
REMARK   61  A    between atoms: _153  and  _156
REMARK   62  A    between atoms: _156  and  _157
REMARK   63  A    between atoms: _157  and  _158
REMARK   64  A    between atoms: _158  and  _159
REMARK   65  A    between atoms: _168  and  _170
REMARK   66  A    between atoms: _170  and  _171
REMARK   67  A    between atoms: _170  and  _173
REMARK   68  A    between atoms: _173  and  _174
REMARK   69  A    between atoms: _179  and  _180
REMARK   70  A    between atoms: _182  and  _184
REMARK   71  A    between atoms: _184  and  _185
REMARK   72  A    between atoms: _184  and  _187
REMARK   73  A    between atoms: _187  and  _188
REMARK   74  A    between atoms: _193  and  _194
REMARK   75  A    between atoms: _196  and  _198
REMARK   76  A    between atoms: _198  and  _199
REMARK   77  A    between atoms: _198  and  _201
REMARK   78  A    between atoms: _201  and  _202
REMARK   79  A    between atoms: _207  and  _209
REMARK   80  A    between atoms: _209  and  _210
REMARK   81  A    between atoms: _209  and  _212
REMARK   82  A    between atoms: _212  and  _213
REMARK   83  A    between atoms: _213  and  _214
REMARK   84  A    between atoms: _214  and  _215
REMARK   85  A    between atoms: _224  and  _226
REMARK   86  A    between atoms: _226  and  _227
REMARK   87  A    between atoms: _226  and  _229
REMARK   88  A    between atoms: _229  and  _230
REMARK   89  A    between atoms: _232  and  _234
REMARK   90  A    between atoms: _234  and  _235
REMARK   91  A    between atoms: _234  and  _237
REMARK   92  A    between atoms: _237  and  _238
REMARK   93  A    between atoms: _241  and  _243
REMARK   94  A    between atoms: _243  and  _244
REMARK   95  A    between atoms: _243  and  _246
REMARK   96  A    between atoms: _246  and  _247
REMARK   97  A    between atoms: _250  and  _252
REMARK   98  A    between atoms: _252  and  _253
REMARK   99  A    between atoms: _252  and  _255
REMARK  100  A    between atoms: _255  and  _256
REMARK  101  A    between atoms: _259  and  _261
REMARK  102  A    between atoms: _261  and  _262
REMARK  103  A    between atoms: _261  and  _264
REMARK  104  A    between atoms: _264  and  _265
REMARK  105  A    between atoms: _271  and  _273
REMARK  106  A    between atoms: _273  and  _274
REMARK  107  A    between atoms: _273  and  _276
REMARK  108  A    between atoms: _276  and  _277
REMARK  109  A    between atoms: _279  and  _281
REMARK  110  A    between atoms: _281  and  _282
REMARK  111  A    between atoms: _281  and  _284
REMARK  112  A    between atoms: _284  and  _285
REMARK  113  A    between atoms: _290  and  _291
REMARK  114  A    between atoms: _293  and  _295
REMARK  115  A    between atoms: _295  and  _296
REMARK  116  A    between atoms: _295  and  _298
REMARK  117  A    between atoms: _298  and  _299
REMARK  118  A    between atoms: _303  and  _304
REMARK  119  A    between atoms: _309  and  _311
REMARK  120  A    between atoms: _311  and  _312
REMARK  121  A    between atoms: _311  and  _314
REMARK  122  A    between atoms: _314  and  _315
REMARK  123  A    between atoms: _317  and  _319
REMARK  124  A    between atoms: _319  and  _320
REMARK  125  A    between atoms: _319  and  _322
REMARK  126  A    between atoms: _322  and  _323
REMARK  127  A    between atoms: _323  and  _324
REMARK  128  A    between atoms: _329  and  _331
REMARK  129  A    between atoms: _331  and  _332
REMARK  130  A    between atoms: _331  and  _334
REMARK  131  A    between atoms: _334  and  _335
REMARK  132  A    between atoms: _338  and  _340
REMARK  133  A    between atoms: _340  and  _341
REMARK  134  A    between atoms: _340  and  _343
REMARK  135  A    between atoms: _343  and  _344
REMARK  136  A    between atoms: _347  and  _349
REMARK  137  A    between atoms: _349  and  _350
REMARK  138  A    between atoms: _349  and  _352
REMARK  139  A    between atoms: _352  and  _353
REMARK  140  A    between atoms: _356  and  _358
REMARK  141  A    between atoms: _358  and  _359
REMARK  142  A    between atoms: _358  and  _361
REMARK  143  A    between atoms: _361  and  _362
REMARK  144  A    between atoms: _365  and  _367
REMARK  145  A    between atoms: _367  and  _368
REMARK  146  A    between atoms: _367  and  _370
REMARK  147  A    between atoms: _370  and  _371
REMARK  148  A    between atoms: _376  and  _378
REMARK  149  A    between atoms: _378  and  _379
REMARK  150  A    between atoms: _382  and  _384
REMARK  151  A    between atoms: _384  and  _385
REMARK  152  A    between atoms: _388  and  _390
REMARK  153  A    between atoms: _390  and  _391
REMARK  154  A    between atoms: _390  and  _393
REMARK  155  A    between atoms: _393  and  _394
REMARK  156  A    between atoms: _399  and  _400
REMARK  157  A    between atoms: _402  and  _404
REMARK  158  A    between atoms: _404  and  _405
REMARK  159  A    between atoms: _404  and  _407
REMARK  160  A    between atoms: _407  and  _408
REMARK  161  A    between atoms: _410  and  _412
REMARK  162  A    between atoms: _412  and  _413
REMARK  163  A    between atoms: _412  and  _415
REMARK  164  A    between atoms: _415  and  _416
REMARK  165  A    between atoms: _419  and  _421
REMARK  166  A    between atoms: _421  and  _422
REMARK  167  A    between atoms: _421  and  _424
REMARK  168  A    between atoms: _427  and  _429
REMARK  169  A    between atoms: _429  and  _430
REMARK  170  A    between atoms: _429  and  _432
REMARK  171  A    between atoms: _432  and  _433
REMARK  172  A    between atoms: _439  and  _441
REMARK  173  A    between atoms: _441  and  _442
REMARK  174  A    between atoms: _441  and  _444
REMARK  175  A    between atoms: _444  and  _445
REMARK  176  A    between atoms: _450  and  _452
REMARK  177  A    between atoms: _452  and  _453
REMARK  178  A    between atoms: _456  and  _458
REMARK  179  A    between atoms: _458  and  _459
REMARK  180  A    between atoms: _458  and  _461
REMARK  181  A    between atoms: _461  and  _462
REMARK  182  A    between atoms: _465  and  _467
REMARK  183  A    between atoms: _467  and  _468
REMARK  184  A    between atoms: _470  and  _472
REMARK  185  A    between atoms: _472  and  _473
REMARK  186  A    between atoms: _475  and  _477
REMARK  187  A    between atoms: _477  and  _478
REMARK  188  A    between atoms: _477  and  _480
REMARK  189  A    between atoms: _480  and  _481
REMARK  190  A    between atoms: _484  and  _486
REMARK  191  A    between atoms: _486  and  _487
REMARK  192  A    between atoms: _489  and  _491
REMARK  193  A    between atoms: _491  and  _492
REMARK  194  A    between atoms: _491  and  _494
REMARK  195  A    between atoms: _494  and  _495
REMARK  196  A    between atoms: _497  and  _499
REMARK  197  A    between atoms: _499  and  _500
REMARK  198  A    between atoms: _499  and  _502
REMARK  199  A    between atoms: _502  and  _503
REMARK                            x       y       z     vdW  Elec       q    Type
REMARK                         _______ _______ _______ _____ _____    ______ ____
ROOT
ATOM      1  C   TYR A   3      16.623  41.858  58.960  0.00  0.00    +0.241 C 
ATOM      2  O   TYR A   3      16.670  41.537  60.146  0.00  0.00    -0.273 OA
ATOM      3  N   HIS A   4      15.851  42.845  58.524  0.00  0.00    -0.297 N 
ATOM      4  H   HIS A   4      15.737  42.970  57.498  0.00  0.00    +0.150 HD
ENDROOT
BRANCH   1   5
ATOM      5  CA  TYR A   3      17.387  41.104  57.918  0.00  0.00    +0.153 C 
BRANCH   5   7
ATOM      6  C   TYR A   2      19.866  40.825  58.020  0.00  0.00    +0.241 C 
ATOM      7  N   TYR A   3      18.656  40.618  58.545  0.00  0.00    -0.297 N 
ATOM      8  H   TYR A   3      18.592  40.090  59.439  0.00  0.00    +0.150 HD
ATOM      9  O   TYR A   2      20.085  41.271  56.854  0.00  0.00    -0.273 OA
BRANCH   6  10
ATOM     10  CA  TYR A   2      21.138  40.626  58.858  0.00  0.00    +0.153 C 
BRANCH  10  13
ATOM     11  C   ARG A   1      22.188  38.634  57.780  0.00  0.00    +0.238 C 
ATOM     12  O   ARG A   1      21.418  37.722  58.231  0.00  0.00    -0.274 OA
ATOM     13  N   TYR A   2      22.110  39.924  58.099  0.00  0.00    -0.297 N 
ATOM     14  H   TYR A   2      22.886  40.512  57.733  0.00  0.00    +0.150 HD
BRANCH  11  15
ATOM     15  CA  ARG A   1      23.254  38.375  56.729  0.00  0.00    +0.145 C 
BRANCH  15  16
ATOM     16  N   ARG A   1      23.737  37.026  56.855  0.00  0.00    -0.238 NA
ATOM     17  H   ARG A   1      23.461  36.304  56.159  0.00  0.00    +0.142 HD
ENDBRANCH  15  16
BRANCH  15  18
ATOM     18  CB  ARG A   1      22.605  38.580  55.354  0.00  0.00    +0.030 C 
BRANCH  18  19
ATOM     19  CG  ARG A   1      23.632  38.486  54.226  0.00  0.00    +0.045 C 
BRANCH  19  20
ATOM     20  CD  ARG A   1      23.000  38.379  52.825  0.00  0.00    +0.174 C 
BRANCH  20  21
ATOM     21  NE  ARG A   1      22.385  37.046  52.679  0.00  0.00    -0.265 N 
ATOM     22  HE  ARG A   1      22.527  36.367  53.454  0.00  0.00    +0.259 HD
ATOM     23  CZ  ARG A   1      21.664  36.643  51.638  0.00  0.00    +0.342 C 
ATOM     24  NH2 ARG A   1      21.148  35.414  51.628  0.00  0.00    -0.292 N 
ATOM     25 HH21 ARG A   1      21.310  34.775  52.433  0.00  0.00    +0.255 HD
ATOM     26 HH22 ARG A   1      20.583  35.094  50.816  0.00  0.00    +0.255 HD
ATOM     27  NH1 ARG A   1      21.494  37.431  50.559  0.00  0.00    -0.292 N 
ATOM     28 HH11 ARG A   1      21.931  38.374  50.530  0.00  0.00    +0.255 HD
ATOM     29 HH12 ARG A   1      20.926  37.096  49.755  0.00  0.00    +0.255 HD
ENDBRANCH  20  21
ENDBRANCH  19  20
ENDBRANCH  18  19
ENDBRANCH  15  18
ENDBRANCH  11  15
ENDBRANCH  10  13
BRANCH  10  30
ATOM     30  CB  TYR A   2      21.842  42.039  59.139  0.00  0.00    +0.055 C 
BRANCH  30  31
ATOM     31  CG  TYR A   2      22.909  41.956  60.291  0.00  0.00    -0.020 A 
ATOM     32  CD2 TYR A   2      22.542  42.116  61.630  0.00  0.00    -0.001 A 
ATOM     33  CE2 TYR A   2      23.524  41.993  62.717  0.00  0.00    +0.036 A 
ATOM     34  CZ  TYR A   2      24.829  41.692  62.420  0.00  0.00    +0.134 A 
ATOM     35  CE1 TYR A   2      25.207  41.579  61.093  0.00  0.00    +0.036 A 
ATOM     36  CD1 TYR A   2      24.244  41.686  60.041  0.00  0.00    -0.001 A 
BRANCH  34  37
ATOM     37  OH  TYR A   2      25.706  41.552  63.474  0.00  0.00    -0.506 OA
ATOM     38  HH  TYR A   2      26.419  42.235  63.401  0.00  0.00    +0.292 HD
ENDBRANCH  34  37
ENDBRANCH  30  31
ENDBRANCH  10  30
ENDBRANCH   6  10
ENDBRANCH   5   7
BRANCH   5  39
ATOM     39  CB  TYR A   3      16.566  39.905  57.399  0.00  0.00    +0.055 C 
BRANCH  39  40
ATOM     40  CG  TYR A   3      17.079  39.327  56.140  0.00  0.00    -0.020 A 
ATOM     41  CD2 TYR A   3      18.269  38.574  56.137  0.00  0.00    -0.001 A 
ATOM     42  CE2 TYR A   3      18.773  38.056  54.923  0.00  0.00    +0.036 A 
ATOM     43  CZ  TYR A   3      18.052  38.226  53.774  0.00  0.00    +0.134 A 
ATOM     44  CE1 TYR A   3      16.867  38.945  53.756  0.00  0.00    +0.036 A 
ATOM     45  CD1 TYR A   3      16.353  39.465  54.945  0.00  0.00    -0.001 A 
BRANCH  43  46
ATOM     46  OH  TYR A   3      18.565  37.683  52.572  0.00  0.00    -0.506 OA
ATOM     47  HH  TYR A   3      17.906  37.052  52.189  0.00  0.00    +0.292 HD
ENDBRANCH  43  46
ENDBRANCH  39  40
ENDBRANCH   5  39
ENDBRANCH   1   5
BRANCH   3  48
ATOM     48  CA  HIS A   4      15.164  43.752  59.408  0.00  0.00    +0.155 C 
BRANCH  48  49
ATOM     49  C   HIS A   4      13.688  43.793  59.117  0.00  0.00    +0.241 C 
ATOM     50  N   ARG A   5      12.888  43.780  60.168  0.00  0.00    -0.297 N 
ATOM     51  H   ARG A   5      13.301  43.636  61.112  0.00  0.00    +0.150 HD
ATOM     52  O   HIS A   4      13.276  43.953  57.944  0.00  0.00    -0.273 OA
BRANCH  50  53
ATOM     53  CA  ARG A   5      11.418  43.964  60.048  0.00  0.00    +0.149 C 
BRANCH  53  54
ATOM     54  C   ARG A   5      10.976  45.225  60.681  0.00  0.00    +0.241 C 
ATOM     55  O   ARG A   5      10.969  45.386  61.912  0.00  0.00    -0.273 OA
ATOM     56  N   SER A   6      10.706  46.231  59.844  0.00  0.00    -0.295 N 
ATOM     57  H   SER A   6      10.848  46.098  58.822  0.00  0.00    +0.150 HD
BRANCH  56  58
ATOM     58  CA  SER A   6      10.226  47.486  60.330  0.00  0.00    +0.178 C 
BRANCH  58  59
ATOM     59  C   SER A   6       8.971  47.337  61.178  0.00  0.00    +0.243 C 
ATOM     60  N   ILE A   7       8.935  48.046  62.291  0.00  0.00    -0.298 N 
ATOM     61  H   ILE A   7       9.783  48.591  62.546  0.00  0.00    +0.150 HD
ATOM     62  O   SER A   6       8.045  46.664  60.801  0.00  0.00    -0.273 OA
BRANCH  60  63
ATOM     63  CA  ILE A   7       7.771  48.117  63.199  0.00  0.00    +0.137 C 
BRANCH  63  64
ATOM     64  CB  ILE A   7       8.067  47.594  64.642  0.00  0.00    +0.026 C 
ATOM     65  CG2 ILE A   7       6.834  47.828  65.543  0.00  0.00    +0.002 C 
BRANCH  64  66
ATOM     66  CG1 ILE A   7       8.305  46.057  64.519  0.00  0.00    +0.002 C 
ATOM     67  CD1 ILE A   7       8.730  45.359  65.870  0.00  0.00    +0.000 C 
ENDBRANCH  64  66
ENDBRANCH  63  64
BRANCH  63  68
ATOM     68  C   ILE A   7       7.288  49.564  63.228  0.00  0.00    +0.227 C 
ATOM     69  O   ILE A   7       6.126  49.817  62.947  0.00  0.00    -0.286 OA
ENDBRANCH  63  68
ENDBRANCH  60  63
ENDBRANCH  58  59
BRANCH  58  70
ATOM     70  CB  SER A   6       9.915  48.408  59.150  0.00  0.00    +0.166 C 
BRANCH  70  71
ATOM     71  OG  SER A   6      11.103  48.612  58.416  0.00  0.00    -0.380 OA
ATOM     72  H   SER A   6      10.917  49.208  57.648  0.00  0.00    +0.211 HD
ENDBRANCH  70  71
ENDBRANCH  58  70
ENDBRANCH  56  58
ENDBRANCH  53  54
BRANCH  53  73
ATOM     73  CB  ARG A   5      10.690  42.700  60.592  0.00  0.00    +0.033 C 
BRANCH  73  74
ATOM     74  CG  ARG A   5       9.401  42.337  59.878  0.00  0.00    +0.045 C 
BRANCH  74  75
ATOM     75  CD  ARG A   5       8.292  43.350  60.183  0.00  0.00    +0.174 C 
BRANCH  75  76
ATOM     76  NE  ARG A   5       7.008  42.939  59.607  0.00  0.00    -0.265 N 
ATOM     77  CZ  ARG A   5       5.886  43.663  59.697  0.00  0.00    +0.342 C 
ATOM     78  NH2 ARG A   5       5.909  44.858  60.272  0.00  0.00    -0.292 N 
ATOM     79 HH21 ARG A   5       6.800  45.234  60.654  0.00  0.00    +0.255 HD
ATOM     80 HH22 ARG A   5       5.036  45.419  60.341  0.00  0.00    +0.255 HD
ATOM     81  NH1 ARG A   5       4.744  43.156  59.192  0.00  0.00    -0.292 N 
ATOM     82 HH11 ARG A   5       3.861  43.703  59.252  0.00  0.00    +0.255 HD
ATOM     83 HH12 ARG A   5       4.745  42.218  58.743  0.00  0.00    +0.255 HD
ATOM     84  HE  ARG A   5       6.967  42.032  59.099  0.00  0.00    +0.259 HD
ENDBRANCH  75  76
ENDBRANCH  74  75
ENDBRANCH  73  74
ENDBRANCH  53  73
ENDBRANCH  50  53
ENDBRANCH  48  49
BRANCH  48  85
ATOM     85  CB  HIS A   4      15.713  45.195  59.156  0.00  0.00    +0.076 C 
BRANCH  85  86
ATOM     86  CG  HIS A   4      17.216  45.273  59.178  0.00  0.00    +0.082 A 
ATOM     87  CD2 HIS A   4      18.090  44.904  60.142  0.00  0.00    +0.115 A 
ATOM     88  NE2 HIS A   4      19.361  45.141  59.657  0.00  0.00    -0.221 NA
ATOM     89  CE1 HIS A   4      19.270  45.637  58.430  0.00  0.00    +0.199 A 
ATOM     90  ND1 HIS A   4      17.990  45.721  58.112  0.00  0.00    -0.227 NA
ENDBRANCH  85  86
ENDBRANCH  48  85
ENDBRANCH   3  48
TORSDOF 34
REMARK  Name = ../refined-set-2016/4a95/4a95_pocket.pdb
REMARK  199 active torsions:
REMARK  status: ('A' for Active; 'I' for Inactive)
REMARK    1  A    between atoms: _1  and  _3
REMARK    2  A    between atoms: _3  and  _4
REMARK    3  A    between atoms: _3  and  _6
REMARK    4  A    between atoms: _6  and  _7
REMARK    5  A    between atoms: _12  and  _13
REMARK    6  A    between atoms: _15  and  _17
REMARK    7  A    between atoms: _17  and  _18
REMARK    8  A    between atoms: _17  and  _20
REMARK    9  A    between atoms: _23  and  _25
REMARK   10  A    between atoms: _25  and  _26
REMARK   11  A    between atoms: _25  and  _28
REMARK   12  A    between atoms: _28  and  _29
REMARK   13  A    between atoms: _29  and  _30
REMARK   14  A    between atoms: _33  and  _35
REMARK   15  A    between atoms: _35  and  _36
REMARK   16  A    between atoms: _35  and  _38
REMARK   17  A    between atoms: _38  and  _39
REMARK   18  A    between atoms: _42  and  _44
REMARK   19  A    between atoms: _44  and  _45
REMARK   20  A    between atoms: _44  and  _47
REMARK   21  A    between atoms: _47  and  _48
REMARK   22  A    between atoms: _51  and  _53
REMARK   23  A    between atoms: _53  and  _54
REMARK   24  A    between atoms: _53  and  _56
REMARK   25  A    between atoms: _56  and  _57
REMARK   26  A    between atoms: _60  and  _62
REMARK   27  A    between atoms: _62  and  _63
REMARK   28  A    between atoms: _62  and  _65
REMARK   29  A    between atoms: _65  and  _66
REMARK   30  A    between atoms: _71  and  _73
REMARK   31  A    between atoms: _73  and  _74
REMARK   32  A    between atoms: _73  and  _76
REMARK   33  A    between atoms: _76  and  _77
REMARK   34  A    between atoms: _80  and  _82
REMARK   35  A    between atoms: _82  and  _83
REMARK   36  A    between atoms: _82  and  _85
REMARK   37  A    between atoms: _85  and  _86
REMARK   38  A    between atoms: _92  and  _94
REMARK   39  A    between atoms: _94  and  _95
REMARK   40  A    between atoms: _94  and  _97
REMARK   41  A    between atoms: _97  and  _98
REMARK   42  A    between atoms: _98  and  _99
REMARK   43  A    between atoms: _99  and  _100
REMARK   44  A    between atoms: _109  and  _111
REMARK   45  A    between atoms: _111  and  _112
REMARK   46  A    between atoms: _111  and  _114
REMARK   47  A    between atoms: _114  and  _115
REMARK   48  A    between atoms: _121  and  _123
REMARK   49  A    between atoms: _123  and  _124
REMARK   50  A    between atoms: _123  and  _126
REMARK   51  A    between atoms: _126  and  _127
REMARK   52  A    between atoms: _132  and  _134
REMARK   53  A    between atoms: _134  and  _135
REMARK   54  A    between atoms: _138  and  _140
REMARK   55  A    between atoms: _140  and  _141
REMARK   56  A    between atoms: _143  and  _145
REMARK   57  A    between atoms: _145  and  _146
REMARK   58  A    between atoms: _145  and  _148
REMARK   59  A    between atoms: _151  and  _153
REMARK   60  A    between atoms: _153  and  _154
REMARK   61  A    between atoms: _153  and  _156
REMARK   62  A    between atoms: _156  and  _157
REMARK   63  A    between atoms: _157  and  _158
REMARK   64  A    between atoms: _158  and  _159
REMARK   65  A    between atoms: _168  and  _170
REMARK   66  A    between atoms: _170  and  _171
REMARK   67  A    between atoms: _170  and  _173
REMARK   68  A    between atoms: _173  and  _174
REMARK   69  A    between atoms: _179  and  _180
REMARK   70  A    between atoms: _182  and  _184
REMARK   71  A    between atoms: _184  and  _185
REMARK   72  A    between atoms: _184  and  _187
REMARK   73  A    between atoms: _187  and  _188
REMARK   74  A    between atoms: _193  and  _194
REMARK   75  A    between atoms: _196  and  _198
REMARK   76  A    between atoms: _198  and  _199
REMARK   77  A    between atoms: _198  and  _201
REMARK   78  A    between atoms: _201  and  _202
REMARK   79  A    between atoms: _207  and  _209
REMARK   80  A    between atoms: _209  and  _210
REMARK   81  A    between atoms: _209  and  _212
REMARK   82  A    between atoms: _212  and  _213
REMARK   83  A    between atoms: _213  and  _214
REMARK   84  A    between atoms: _214  and  _215
REMARK   85  A    between atoms: _224  and  _226
REMARK   86  A    between atoms: _226  and  _227
REMARK   87  A    between atoms: _226  and  _229
REMARK   88  A    between atoms: _229  and  _230
REMARK   89  A    between atoms: _232  and  _234
REMARK   90  A    between atoms: _234  and  _235
REMARK   91  A    between atoms: _234  and  _237
REMARK   92  A    between atoms: _237  and  _238
REMARK   93  A    between atoms: _241  and  _243
REMARK   94  A    between atoms: _243  and  _244
REMARK   95  A    between atoms: _243  and  _246
REMARK   96  A    between atoms: _246  and  _247
REMARK   97  A    between atoms: _250  and  _252
REMARK   98  A    between atoms: _252  and  _253
REMARK   99  A    between atoms: _252  and  _255
REMARK  100  A    between atoms: _255  and  _256
REMARK  101  A    between atoms: _259  and  _261
REMARK  102  A    between atoms: _261  and  _262
REMARK  103  A    between atoms: _261  and  _264
REMARK  104  A    between atoms: _264  and  _265
REMARK  105  A    between atoms: _271  and  _273
REMARK  106  A    between atoms: _273  and  _274
REMARK  107  A    between atoms: _273  and  _276
REMARK  108  A    between atoms: _276  and  _277
REMARK  109  A    between atoms: _279  and  _281
REMARK  110  A    between atoms: _281  and  _282
REMARK  111  A    between atoms: _281  and  _284
REMARK  112  A    between atoms: _284  and  _285
REMARK  113  A    between atoms: _290  and  _291
REMARK  114  A    between atoms: _293  and  _295
REMARK  115  A    between atoms: _295  and  _296
REMARK  116  A    between atoms: _295  and  _298
REMARK  117  A    between atoms: _298  and  _299
REMARK  118  A    between atoms: _303  and  _304
REMARK  119  A    between atoms: _309  and  _311
REMARK  120  A    between atoms: _311  and  _312
REMARK  121  A    between atoms: _311  and  _314
REMARK  122  A    between atoms: _314  and  _315
REMARK  123  A    between atoms: _317  and  _319
REMARK  124  A    between atoms: _319  and  _320
REMARK  125  A    between atoms: _319  and  _322
REMARK  126  A    between atoms: _322  and  _323
REMARK  127  A    between atoms: _323  and  _324
REMARK  128  A    between atoms: _329  and  _331
REMARK  129  A    between atoms: _331  and  _332
REMARK  130  A    between atoms: _331  and  _334
REMARK  131  A    between atoms: _334  and  _335
REMARK  132  A    between atoms: _338  and  _340
REMARK  133  A    between atoms: _340  and  _341
REMARK  134  A    between atoms: _340  and  _343
REMARK  135  A    between atoms: _343  and  _344
REMARK  136  A    between atoms: _347  and  _349
REMARK  137  A    between atoms: _349  and  _350
REMARK  138  A    between atoms: _349  and  _352
REMARK  139  A    between atoms: _352  and  _353
REMARK  140  A    between atoms: _356  and  _358
REMARK  141  A    between atoms: _358  and  _359
REMARK  142  A    between atoms: _358  and  _361
REMARK  143  A    between atoms: _361  and  _362
REMARK  144  A    between atoms: _365  and  _367
REMARK  145  A    between atoms: _367  and  _368
REMARK  146  A    between atoms: _367  and  _370
REMARK  147  A    between atoms: _370  and  _371
REMARK  148  A    between atoms: _376  and  _378
REMARK  149  A    between atoms: _378  and  _379
REMARK  150  A    between atoms: _382  and  _384
REMARK  151  A    between atoms: _384  and  _385
REMARK  152  A    between atoms: _388  and  _390
REMARK  153  A    between atoms: _390  and  _391
REMARK  154  A    between atoms: _390  and  _393
REMARK  155  A    between atoms: _393  and  _394
REMARK  156  A    between atoms: _399  and  _400
REMARK  157  A    between atoms: _402  and  _404
REMARK  158  A    between atoms: _404  and  _405
REMARK  159  A    between atoms: _404  and  _407
REMARK  160  A    between atoms: _407  and  _408
REMARK  161  A    between atoms: _410  and  _412
REMARK  162  A    between atoms: _412  and  _413
REMARK  163  A    between atoms: _412  and  _415
REMARK  164  A    between atoms: _415  and  _416
REMARK  165  A    between atoms: _419  and  _421
REMARK  166  A    between atoms: _421  and  _422
REMARK  167  A    between atoms: _421  and  _424
REMARK  168  A    between atoms: _427  and  _429
REMARK  169  A    between atoms: _429  and  _430
REMARK  170  A    between atoms: _429  and  _432
REMARK  171  A    between atoms: _432  and  _433
REMARK  172  A    between atoms: _439  and  _441
REMARK  173  A    between atoms: _441  and  _442
REMARK  174  A    between atoms: _441  and  _444
REMARK  175  A    between atoms: _444  and  _445
REMARK  176  A    between atoms: _450  and  _452
REMARK  177  A    between atoms: _452  and  _453
REMARK  178  A    between atoms: _456  and  _458
REMARK  179  A    between atoms: _458  and  _459
REMARK  180  A    between atoms: _458  and  _461
REMARK  181  A    between atoms: _461  and  _462
REMARK  182  A    between atoms: _465  and  _467
REMARK  183  A    between atoms: _467  and  _468
REMARK  184  A    between atoms: _470  and  _472
REMARK  185  A    between atoms: _472  and  _473
REMARK  186  A    between atoms: _475  and  _477
REMARK  187  A    between atoms: _477  and  _478
REMARK  188  A    between atoms: _477  and  _480
REMARK  189  A    between atoms: _480  and  _481
REMARK  190  A    between atoms: _484  and  _486
REMARK  191  A    between atoms: _486  and  _487
REMARK  192  A    between atoms: _489  and  _491
REMARK  193  A    between atoms: _491  and  _492
REMARK  194  A    between atoms: _491  and  _494
REMARK  195  A    between atoms: _494  and  _495
REMARK  196  A    between atoms: _497  and  _499
REMARK  197  A    between atoms: _499  and  _500
REMARK  198  A    between atoms: _499  and  _502
REMARK  199  A    between atoms: _502  and  _503
REMARK                            x       y       z     vdW  Elec       q    Type
REMARK                         _______ _______ _______ _____ _____    ______ ____
ROOT
ATOM      1  CA  LEU A   1      12.763  54.503  60.387  0.00  0.00    +0.133 C 
ENDROOT
BRANCH   1   2
ATOM      2  N   LEU A   1      11.734  55.012  61.264  0.00  0.00    -0.239 NA
ATOM      3  H   LEU A   1      10.932  54.403  61.524  0.00  0.00    +0.142 HD
ENDBRANCH   1   2
BRANCH   1   4
ATOM      4  C   LEU A   1      12.964  55.321  59.108  0.00  0.00    +0.224 C 
ATOM      5  O   LEU A   1      14.044  55.401  58.648  0.00  0.00    -0.287 OA
ENDBRANCH   1   4
BRANCH   1   6
ATOM      6  CB  LEU A   1      12.475  53.035  59.959  0.00  0.00    +0.025 C 
BRANCH   6   7
ATOM      7  CG  LEU A   1      12.537  52.106  61.165  0.00  0.00    +0.002 C 
ATOM      8  CD2 LEU A   1      13.960  52.092  61.672  0.00  0.00    +0.000 C 
ATOM      9  CD1 LEU A   1      12.099  50.698  60.666  0.00  0.00    +0.000 C 
ENDBRANCH   6   7
ENDBRANCH   1   6
TORSDOF 4
REMARK  Name = ../refined-set-2016/4a95/4a95_pocket.pdb
REMARK  199 active torsions:
REMARK  status: ('A' for Active; 'I' for Inactive)
REMARK    1  A    between atoms: _1  and  _3
REMARK    2  A    between atoms: _3  and  _4
REMARK    3  A    between atoms: _3  and  _6
REMARK    4  A    between atoms: _6  and  _7
REMARK    5  A    between atoms: _12  and  _13
REMARK    6  A    between atoms: _15  and  _17
REMARK    7  A    between atoms: _17  and  _18
REMARK    8  A    between atoms: _17  and  _20
REMARK    9  A    between atoms: _23  and  _25
REMARK   10  A    between atoms: _25  and  _26
REMARK   11  A    between atoms: _25  and  _28
REMARK   12  A    between atoms: _28  and  _29
REMARK   13  A    between atoms: _29  and  _30
REMARK   14  A    between atoms: _33  and  _35
REMARK   15  A    between atoms: _35  and  _36
REMARK   16  A    between atoms: _35  and  _38
REMARK   17  A    between atoms: _38  and  _39
REMARK   18  A    between atoms: _42  and  _44
REMARK   19  A    between atoms: _44  and  _45
REMARK   20  A    between atoms: _44  and  _47
REMARK   21  A    between atoms: _47  and  _48
REMARK   22  A    between atoms: _51  and  _53
REMARK   23  A    between atoms: _53  and  _54
REMARK   24  A    between atoms: _53  and  _56
REMARK   25  A    between atoms: _56  and  _57
REMARK   26  A    between atoms: _60  and  _62
REMARK   27  A    between atoms: _62  and  _63
REMARK   28  A    between atoms: _62  and  _65
REMARK   29  A    between atoms: _65  and  _66
REMARK   30  A    between atoms: _71  and  _73
REMARK   31  A    between atoms: _73  and  _74
REMARK   32  A    between atoms: _73  and  _76
REMARK   33  A    between atoms: _76  and  _77
REMARK   34  A    between atoms: _80  and  _82
REMARK   35  A    between atoms: _82  and  _83
REMARK   36  A    between atoms: _82  and  _85
REMARK   37  A    between atoms: _85  and  _86
REMARK   38  A    between atoms: _92  and  _94
REMARK   39  A    between atoms: _94  and  _95
REMARK   40  A    between atoms: _94  and  _97
REMARK   41  A    between atoms: _97  and  _98
REMARK   42  A    between atoms: _98  and  _99
REMARK   43  A    between atoms: _99  and  _100
REMARK   44  A    between atoms: _109  and  _111
REMARK   45  A    between atoms: _111  and  _112
REMARK   46  A    between atoms: _111  and  _114
REMARK   47  A    between atoms: _114  and  _115
REMARK   48  A    between atoms: _121  and  _123
REMARK   49  A    between atoms: _123  and  _124
REMARK   50  A    between atoms: _123  and  _126
REMARK   51  A    between atoms: _126  and  _127
REMARK   52  A    between atoms: _132  and  _134
REMARK   53  A    between atoms: _134  and  _135
REMARK   54  A    between atoms: _138  and  _140
REMARK   55  A    between atoms: _140  and  _141
REMARK   56  A    between atoms: _143  and  _145
REMARK   57  A    between atoms: _145  and  _146
REMARK   58  A    between atoms: _145  and  _148
REMARK   59  A    between atoms: _151  and  _153
REMARK   60  A    between atoms: _153  and  _154
REMARK   61  A    between atoms: _153  and  _156
REMARK   62  A    between atoms: _156  and  _157
REMARK   63  A    between atoms: _157  and  _158
REMARK   64  A    between atoms: _158  and  _159
REMARK   65  A    between atoms: _168  and  _170
REMARK   66  A    between atoms: _170  and  _171
REMARK   67  A    between atoms: _170  and  _173
REMARK   68  A    between atoms: _173  and  _174
REMARK   69  A    between atoms: _179  and  _180
REMARK   70  A    between atoms: _182  and  _184
REMARK   71  A    between atoms: _184  and  _185
REMARK   72  A    between atoms: _184  and  _187
REMARK   73  A    between atoms: _187  and  _188
REMARK   74  A    between atoms: _193  and  _194
REMARK   75  A    between atoms: _196  and  _198
REMARK   76  A    between atoms: _198  and  _199
REMARK   77  A    between atoms: _198  and  _201
REMARK   78  A    between atoms: _201  and  _202
REMARK   79  A    between atoms: _207  and  _209
REMARK   80  A    between atoms: _209  and  _210
REMARK   81  A    between atoms: _209  and  _212
REMARK   82  A    between atoms: _212  and  _213
REMARK   83  A    between atoms: _213  and  _214
REMARK   84  A    between atoms: _214  and  _215
REMARK   85  A    between atoms: _224  and  _226
REMARK   86  A    between atoms: _226  and  _227
REMARK   87  A    between atoms: _226  and  _229
REMARK   88  A    between atoms: _229  and  _230
REMARK   89  A    between atoms: _232  and  _234
REMARK   90  A    between atoms: _234  and  _235
REMARK   91  A    between atoms: _234  and  _237
REMARK   92  A    between atoms: _237  and  _238
REMARK   93  A    between atoms: _241  and  _243
REMARK   94  A    between atoms: _243  and  _244
REMARK   95  A    between atoms: _243  and  _246
REMARK   96  A    between atoms: _246  and  _247
REMARK   97  A    between atoms: _250  and  _252
REMARK   98  A    between atoms: _252  and  _253
REMARK   99  A    between atoms: _252  and  _255
REMARK  100  A    between atoms: _255  and  _256
REMARK  101  A    between atoms: _259  and  _261
REMARK  102  A    between atoms: _261  and  _262
REMARK  103  A    between atoms: _261  and  _264
REMARK  104  A    between atoms: _264  and  _265
REMARK  105  A    between atoms: _271  and  _273
REMARK  106  A    between atoms: _273  and  _274
REMARK  107  A    between atoms: _273  and  _276
REMARK  108  A    between atoms: _276  and  _277
REMARK  109  A    between atoms: _279  and  _281
REMARK  110  A    between atoms: _281  and  _282
REMARK  111  A    between atoms: _281  and  _284
REMARK  112  A    between atoms: _284  and  _285
REMARK  113  A    between atoms: _290  and  _291
REMARK  114  A    between atoms: _293  and  _295
REMARK  115  A    between atoms: _295  and  _296
REMARK  116  A    between atoms: _295  and  _298
REMARK  117  A    between atoms: _298  and  _299
REMARK  118  A    between atoms: _303  and  _304
REMARK  119  A    between atoms: _309  and  _311
REMARK  120  A    between atoms: _311  and  _312
REMARK  121  A    between atoms: _311  and  _314
REMARK  122  A    between atoms: _314  and  _315
REMARK  123  A    between atoms: _317  and  _319
REMARK  124  A    between atoms: _319  and  _320
REMARK  125  A    between atoms: _319  and  _322
REMARK  126  A    between atoms: _322  and  _323
REMARK  127  A    between atoms: _323  and  _324
REMARK  128  A    between atoms: _329  and  _331
REMARK  129  A    between atoms: _331  and  _332
REMARK  130  A    between atoms: _331  and  _334
REMARK  131  A    between atoms: _334  and  _335
REMARK  132  A    between atoms: _338  and  _340
REMARK  133  A    between atoms: _340  and  _341
REMARK  134  A    between atoms: _340  and  _343
REMARK  135  A    between atoms: _343  and  _344
REMARK  136  A    between atoms: _347  and  _349
REMARK  137  A    between atoms: _349  and  _350
REMARK  138  A    between atoms: _349  and  _352
REMARK  139  A    between atoms: _352  and  _353
REMARK  140  A    between atoms: _356  and  _358
REMARK  141  A    between atoms: _358  and  _359
REMARK  142  A    between atoms: _358  and  _361
REMARK  143  A    between atoms: _361  and  _362
REMARK  144  A    between atoms: _365  and  _367
REMARK  145  A    between atoms: _367  and  _368
REMARK  146  A    between atoms: _367  and  _370
REMARK  147  A    between atoms: _370  and  _371
REMARK  148  A    between atoms: _376  and  _378
REMARK  149  A    between atoms: _378  and  _379
REMARK  150  A    between atoms: _382  and  _384
REMARK  151  A    between atoms: _384  and  _385
REMARK  152  A    between atoms: _388  and  _390
REMARK  153  A    between atoms: _390  and  _391
REMARK  154  A    between atoms: _390  and  _393
REMARK  155  A    between atoms: _393  and  _394
REMARK  156  A    between atoms: _399  and  _400
REMARK  157  A    between atoms: _402  and  _404
REMARK  158  A    between atoms: _404  and  _405
REMARK  159  A    between atoms: _404  and  _407
REMARK  160  A    between atoms: _407  and  _408
REMARK  161  A    between atoms: _410  and  _412
REMARK  162  A    between atoms: _412  and  _413
REMARK  163  A    between atoms: _412  and  _415
REMARK  164  A    between atoms: _415  and  _416
REMARK  165  A    between atoms: _419  and  _421
REMARK  166  A    between atoms: _421  and  _422
REMARK  167  A    between atoms: _421  and  _424
REMARK  168  A    between atoms: _427  and  _429
REMARK  169  A    between atoms: _429  and  _430
REMARK  170  A    between atoms: _429  and  _432
REMARK  171  A    between atoms: _432  and  _433
REMARK  172  A    between atoms: _439  and  _441
REMARK  173  A    between atoms: _441  and  _442
REMARK  174  A    between atoms: _441  and  _444
REMARK  175  A    between atoms: _444  and  _445
REMARK  176  A    between atoms: _450  and  _452
REMARK  177  A    between atoms: _452  and  _453
REMARK  178  A    between atoms: _456  and  _458
REMARK  179  A    between atoms: _458  and  _459
REMARK  180  A    between atoms: _458  and  _461
REMARK  181  A    between atoms: _461  and  _462
REMARK  182  A    between atoms: _465  and  _467
REMARK  183  A    between atoms: _467  and  _468
REMARK  184  A    between atoms: _470  and  _472
REMARK  185  A    between atoms: _472  and  _473
REMARK  186  A    between atoms: _475  and  _477
REMARK  187  A    between atoms: _477  and  _478
REMARK  188  A    between atoms: _477  and  _480
REMARK  189  A    between atoms: _480  and  _481
REMARK  190  A    between atoms: _484  and  _486
REMARK  191  A    between atoms: _486  and  _487
REMARK  192  A    between atoms: _489  and  _491
REMARK  193  A    between atoms: _491  and  _492
REMARK  194  A    between atoms: _491  and  _494
REMARK  195  A    between atoms: _494  and  _495
REMARK  196  A    between atoms: _497  and  _499
REMARK  197  A    between atoms: _499  and  _500
REMARK  198  A    between atoms: _499  and  _502
REMARK  199  A    between atoms: _502  and  _503
REMARK                            x       y       z     vdW  Elec       q    Type
REMARK                         _______ _______ _______ _____ _____    ______ ____
ROOT
ATOM      1  CA  ILE A   1      16.159  58.907  60.370  0.00  0.00    +0.133 C 
ENDROOT
BRANCH   1   2
ATOM      2  N   ILE A   1      14.724  58.944  60.085  0.00  0.00    -0.239 NA
ATOM      3  H   ILE A   1      14.145  58.088  60.201  0.00  0.00    +0.142 HD
ENDBRANCH   1   2
BRANCH   1   4
ATOM      4  CB  ILE A   1      16.497  57.999  61.591  0.00  0.00    +0.023 C 
ATOM      5  CG2 ILE A   1      15.681  58.426  62.816  0.00  0.00    +0.002 C 
BRANCH   4   6
ATOM      6  CG1 ILE A   1      16.258  56.527  61.255  0.00  0.00    +0.002 C 
ATOM      7  CD1 ILE A   1      16.481  55.599  62.439  0.00  0.00    +0.000 C 
ENDBRANCH   4   6
ENDBRANCH   1   4
BRANCH   1   8
ATOM      8  C   ILE A   1      16.989  58.527  59.192  0.00  0.00    +0.224 C 
ATOM      9  O   ILE A   1      18.248  58.395  59.281  0.00  0.00    -0.287 OA
ENDBRANCH   1   8
TORSDOF 4
REMARK  Name = ../refined-set-2016/4a95/4a95_pocket.pdb
REMARK  199 active torsions:
REMARK  status: ('A' for Active; 'I' for Inactive)
REMARK    1  A    between atoms: _1  and  _3
REMARK    2  A    between atoms: _3  and  _4
REMARK    3  A    between atoms: _3  and  _6
REMARK    4  A    between atoms: _6  and  _7
REMARK    5  A    between atoms: _12  and  _13
REMARK    6  A    between atoms: _15  and  _17
REMARK    7  A    between atoms: _17  and  _18
REMARK    8  A    between atoms: _17  and  _20
REMARK    9  A    between atoms: _23  and  _25
REMARK   10  A    between atoms: _25  and  _26
REMARK   11  A    between atoms: _25  and  _28
REMARK   12  A    between atoms: _28  and  _29
REMARK   13  A    between atoms: _29  and  _30
REMARK   14  A    between atoms: _33  and  _35
REMARK   15  A    between atoms: _35  and  _36
REMARK   16  A    between atoms: _35  and  _38
REMARK   17  A    between atoms: _38  and  _39
REMARK   18  A    between atoms: _42  and  _44
REMARK   19  A    between atoms: _44  and  _45
REMARK   20  A    between atoms: _44  and  _47
REMARK   21  A    between atoms: _47  and  _48
REMARK   22  A    between atoms: _51  and  _53
REMARK   23  A    between atoms: _53  and  _54
REMARK   24  A    between atoms: _53  and  _56
REMARK   25  A    between atoms: _56  and  _57
REMARK   26  A    between atoms: _60  and  _62
REMARK   27  A    between atoms: _62  and  _63
REMARK   28  A    between atoms: _62  and  _65
REMARK   29  A    between atoms: _65  and  _66
REMARK   30  A    between atoms: _71  and  _73
REMARK   31  A    between atoms: _73  and  _74
REMARK   32  A    between atoms: _73  and  _76
REMARK   33  A    between atoms: _76  and  _77
REMARK   34  A    between atoms: _80  and  _82
REMARK   35  A    between atoms: _82  and  _83
REMARK   36  A    between atoms: _82  and  _85
REMARK   37  A    between atoms: _85  and  _86
REMARK   38  A    between atoms: _92  and  _94
REMARK   39  A    between atoms: _94  and  _95
REMARK   40  A    between atoms: _94  and  _97
REMARK   41  A    between atoms: _97  and  _98
REMARK   42  A    between atoms: _98  and  _99
REMARK   43  A    between atoms: _99  and  _100
REMARK   44  A    between atoms: _109  and  _111
REMARK   45  A    between atoms: _111  and  _112
REMARK   46  A    between atoms: _111  and  _114
REMARK   47  A    between atoms: _114  and  _115
REMARK   48  A    between atoms: _121  and  _123
REMARK   49  A    between atoms: _123  and  _124
REMARK   50  A    between atoms: _123  and  _126
REMARK   51  A    between atoms: _126  and  _127
REMARK   52  A    between atoms: _132  and  _134
REMARK   53  A    between atoms: _134  and  _135
REMARK   54  A    between atoms: _138  and  _140
REMARK   55  A    between atoms: _140  and  _141
REMARK   56  A    between atoms: _143  and  _145
REMARK   57  A    between atoms: _145  and  _146
REMARK   58  A    between atoms: _145  and  _148
REMARK   59  A    between atoms: _151  and  _153
REMARK   60  A    between atoms: _153  and  _154
REMARK   61  A    between atoms: _153  and  _156
REMARK   62  A    between atoms: _156  and  _157
REMARK   63  A    between atoms: _157  and  _158
REMARK   64  A    between atoms: _158  and  _159
REMARK   65  A    between atoms: _168  and  _170
REMARK   66  A    between atoms: _170  and  _171
REMARK   67  A    between atoms: _170  and  _173
REMARK   68  A    between atoms: _173  and  _174
REMARK   69  A    between atoms: _179  and  _180
REMARK   70  A    between atoms: _182  and  _184
REMARK   71  A    between atoms: _184  and  _185
REMARK   72  A    between atoms: _184  and  _187
REMARK   73  A    between atoms: _187  and  _188
REMARK   74  A    between atoms: _193  and  _194
REMARK   75  A    between atoms: _196  and  _198
REMARK   76  A    between atoms: _198  and  _199
REMARK   77  A    between atoms: _198  and  _201
REMARK   78  A    between atoms: _201  and  _202
REMARK   79  A    between atoms: _207  and  _209
REMARK   80  A    between atoms: _209  and  _210
REMARK   81  A    between atoms: _209  and  _212
REMARK   82  A    between atoms: _212  and  _213
REMARK   83  A    between atoms: _213  and  _214
REMARK   84  A    between atoms: _214  and  _215
REMARK   85  A    between atoms: _224  and  _226
REMARK   86  A    between atoms: _226  and  _227
REMARK   87  A    between atoms: _226  and  _229
REMARK   88  A    between atoms: _229  and  _230
REMARK   89  A    between atoms: _232  and  _234
REMARK   90  A    between atoms: _234  and  _235
REMARK   91  A    between atoms: _234  and  _237
REMARK   92  A    between atoms: _237  and  _238
REMARK   93  A    between atoms: _241  and  _243
REMARK   94  A    between atoms: _243  and  _244
REMARK   95  A    between atoms: _243  and  _246
REMARK   96  A    between atoms: _246  and  _247
REMARK   97  A    between atoms: _250  and  _252
REMARK   98  A    between atoms: _252  and  _253
REMARK   99  A    between atoms: _252  and  _255
REMARK  100  A    between atoms: _255  and  _256
REMARK  101  A    between atoms: _259  and  _261
REMARK  102  A    between atoms: _261  and  _262
REMARK  103  A    between atoms: _261  and  _264
REMARK  104  A    between atoms: _264  and  _265
REMARK  105  A    between atoms: _271  and  _273
REMARK  106  A    between atoms: _273  and  _274
REMARK  107  A    between atoms: _273  and  _276
REMARK  108  A    between atoms: _276  and  _277
REMARK  109  A    between atoms: _279  and  _281
REMARK  110  A    between atoms: _281  and  _282
REMARK  111  A    between atoms: _281  and  _284
REMARK  112  A    between atoms: _284  and  _285
REMARK  113  A    between atoms: _290  and  _291
REMARK  114  A    between atoms: _293  and  _295
REMARK  115  A    between atoms: _295  and  _296
REMARK  116  A    between atoms: _295  and  _298
REMARK  117  A    between atoms: _298  and  _299
REMARK  118  A    between atoms: _303  and  _304
REMARK  119  A    between atoms: _309  and  _311
REMARK  120  A    between atoms: _311  and  _312
REMARK  121  A    between atoms: _311  and  _314
REMARK  122  A    between atoms: _314  and  _315
REMARK  123  A    between atoms: _317  and  _319
REMARK  124  A    between atoms: _319  and  _320
REMARK  125  A    between atoms: _319  and  _322
REMARK  126  A    between atoms: _322  and  _323
REMARK  127  A    between atoms: _323  and  _324
REMARK  128  A    between atoms: _329  and  _331
REMARK  129  A    between atoms: _331  and  _332
REMARK  130  A    between atoms: _331  and  _334
REMARK  131  A    between atoms: _334  and  _335
REMARK  132  A    between atoms: _338  and  _340
REMARK  133  A    between atoms: _340  and  _341
REMARK  134  A    between atoms: _340  and  _343
REMARK  135  A    between atoms: _343  and  _344
REMARK  136  A    between atoms: _347  and  _349
REMARK  137  A    between atoms: _349  and  _350
REMARK  138  A    between atoms: _349  and  _352
REMARK  139  A    between atoms: _352  and  _353
REMARK  140  A    between atoms: _356  and  _358
REMARK  141  A    between atoms: _358  and  _359
REMARK  142  A    between atoms: _358  and  _361
REMARK  143  A    between atoms: _361  and  _362
REMARK  144  A    between atoms: _365  and  _367
REMARK  145  A    between atoms: _367  and  _368
REMARK  146  A    between atoms: _367  and  _370
REMARK  147  A    between atoms: _370  and  _371
REMARK  148  A    between atoms: _376  and  _378
REMARK  149  A    between atoms: _378  and  _379
REMARK  150  A    between atoms: _382  and  _384
REMARK  151  A    between atoms: _384  and  _385
REMARK  152  A    between atoms: _388  and  _390
REMARK  153  A    between atoms: _390  and  _391
REMARK  154  A    between atoms: _390  and  _393
REMARK  155  A    between atoms: _393  and  _394
REMARK  156  A    between atoms: _399  and  _400
REMARK  157  A    between atoms: _402  and  _404
REMARK  158  A    between atoms: _404  and  _405
REMARK  159  A    between atoms: _404  and  _407
REMARK  160  A    between atoms: _407  and  _408
REMARK  161  A    between atoms: _410  and  _412
REMARK  162  A    between atoms: _412  and  _413
REMARK  163  A    between atoms: _412  and  _415
REMARK  164  A    between atoms: _415  and  _416
REMARK  165  A    between atoms: _419  and  _421
REMARK  166  A    between atoms: _421  and  _422
REMARK  167  A    between atoms: _421  and  _424
REMARK  168  A    between atoms: _427  and  _429
REMARK  169  A    between atoms: _429  and  _430
REMARK  170  A    between atoms: _429  and  _432
REMARK  171  A    between atoms: _432  and  _433
REMARK  172  A    between atoms: _439  and  _441
REMARK  173  A    between atoms: _441  and  _442
REMARK  174  A    between atoms: _441  and  _444
REMARK  175  A    between atoms: _444  and  _445
REMARK  176  A    between atoms: _450  and  _452
REMARK  177  A    between atoms: _452  and  _453
REMARK  178  A    between atoms: _456  and  _458
REMARK  179  A    between atoms: _458  and  _459
REMARK  180  A    between atoms: _458  and  _461
REMARK  181  A    between atoms: _461  and  _462
REMARK  182  A    between atoms: _465  and  _467
REMARK  183  A    between atoms: _467  and  _468
REMARK  184  A    between atoms: _470  and  _472
REMARK  185  A    between atoms: _472  and  _473
REMARK  186  A    between atoms: _475  and  _477
REMARK  187  A    between atoms: _477  and  _478
REMARK  188  A    between atoms: _477  and  _480
REMARK  189  A    between atoms: _480  and  _481
REMARK  190  A    between atoms: _484  and  _486
REMARK  191  A    between atoms: _486  and  _487
REMARK  192  A    between atoms: _489  and  _491
REMARK  193  A    between atoms: _491  and  _492
REMARK  194  A    between atoms: _491  and  _494
REMARK  195  A    between atoms: _494  and  _495
REMARK  196  A    between atoms: _497  and  _499
REMARK  197  A    between atoms: _499  and  _500
REMARK  198  A    between atoms: _499  and  _502
REMARK  199  A    between atoms: _502  and  _503
REMARK                            x       y       z     vdW  Elec       q    Type
REMARK                         _______ _______ _______ _____ _____    ______ ____
ROOT
ATOM      1  CA  PHE A   1      17.170  54.384  57.251  0.00  0.00    +0.149 C 
ENDROOT
BRANCH   1   2
ATOM      2  C   PHE A   1      16.342  53.747  56.134  0.00  0.00    +0.239 C 
ATOM      3  N   SER A   2      15.006  53.890  56.179  0.00  0.00    -0.296 N 
ATOM      4  H   SER A   2      14.573  54.397  56.977  0.00  0.00    +0.150 HD
ATOM      5  O   PHE A   1      16.920  53.083  55.271  0.00  0.00    -0.274 OA
BRANCH   3   6
ATOM      6  CA  SER A   2      14.139  53.337  55.111  0.00  0.00    +0.166 C 
BRANCH   6   7
ATOM      7  C   SER A   2      13.773  54.403  54.118  0.00  0.00    +0.229 C 
ATOM      8  O   SER A   2      13.826  55.602  54.425  0.00  0.00    -0.286 OA
ENDBRANCH   6   7
BRANCH   6   9
ATOM      9  CB  SER A   2      12.837  52.674  55.618  0.00  0.00    +0.165 C 
BRANCH   9  10
ATOM     10  OG  SER A   2      13.006  51.979  56.848  0.00  0.00    -0.380 OA
ATOM     11  H   SER A   2      12.143  51.578  57.120  0.00  0.00    +0.211 HD
ENDBRANCH   9  10
ENDBRANCH   6   9
ENDBRANCH   3   6
ENDBRANCH   1   2
BRANCH   1  12
ATOM     12  N   PHE A   1      16.986  55.816  57.494  0.00  0.00    -0.238 NA
ATOM     13  H   PHE A   1      16.522  56.164  58.357  0.00  0.00    +0.142 HD
ENDBRANCH   1  12
BRANCH   1  14
ATOM     14  CB  PHE A   1      17.019  53.591  58.542  0.00  0.00    +0.053 C 
BRANCH  14  15
ATOM     15  CG  PHE A   1      17.400  52.144  58.348  0.00  0.00    -0.020 A 
ATOM     16  CD2 PHE A   1      18.774  51.746  58.272  0.00  0.00    -0.004 A 
ATOM     17  CE2 PHE A   1      19.154  50.374  58.070  0.00  0.00    -0.000 A 
ATOM     18  CZ  PHE A   1      18.157  49.400  57.886  0.00  0.00    -0.000 A 
ATOM     19  CE1 PHE A   1      16.774  49.809  57.933  0.00  0.00    -0.000 A 
ATOM     20  CD1 PHE A   1      16.414  51.194  58.181  0.00  0.00    -0.004 A 
ENDBRANCH  14  15
ENDBRANCH   1  14
TORSDOF 8
REMARK  Name = ../refined-set-2016/4a95/4a95_pocket.pdb
REMARK  199 active torsions:
REMARK  status: ('A' for Active; 'I' for Inactive)
REMARK    1  A    between atoms: _1  and  _3
REMARK    2  A    between atoms: _3  and  _4
REMARK    3  A    between atoms: _3  and  _6
REMARK    4  A    between atoms: _6  and  _7
REMARK    5  A    between atoms: _12  and  _13
REMARK    6  A    between atoms: _15  and  _17
REMARK    7  A    between atoms: _17  and  _18
REMARK    8  A    between atoms: _17  and  _20
REMARK    9  A    between atoms: _23  and  _25
REMARK   10  A    between atoms: _25  and  _26
REMARK   11  A    between atoms: _25  and  _28
REMARK   12  A    between atoms: _28  and  _29
REMARK   13  A    between atoms: _29  and  _30
REMARK   14  A    between atoms: _33  and  _35
REMARK   15  A    between atoms: _35  and  _36
REMARK   16  A    between atoms: _35  and  _38
REMARK   17  A    between atoms: _38  and  _39
REMARK   18  A    between atoms: _42  and  _44
REMARK   19  A    between atoms: _44  and  _45
REMARK   20  A    between atoms: _44  and  _47
REMARK   21  A    between atoms: _47  and  _48
REMARK   22  A    between atoms: _51  and  _53
REMARK   23  A    between atoms: _53  and  _54
REMARK   24  A    between atoms: _53  and  _56
REMARK   25  A    between atoms: _56  and  _57
REMARK   26  A    between atoms: _60  and  _62
REMARK   27  A    between atoms: _62  and  _63
REMARK   28  A    between atoms: _62  and  _65
REMARK   29  A    between atoms: _65  and  _66
REMARK   30  A    between atoms: _71  and  _73
REMARK   31  A    between atoms: _73  and  _74
REMARK   32  A    between atoms: _73  and  _76
REMARK   33  A    between atoms: _76  and  _77
REMARK   34  A    between atoms: _80  and  _82
REMARK   35  A    between atoms: _82  and  _83
REMARK   36  A    between atoms: _82  and  _85
REMARK   37  A    between atoms: _85  and  _86
REMARK   38  A    between atoms: _92  and  _94
REMARK   39  A    between atoms: _94  and  _95
REMARK   40  A    between atoms: _94  and  _97
REMARK   41  A    between atoms: _97  and  _98
REMARK   42  A    between atoms: _98  and  _99
REMARK   43  A    between atoms: _99  and  _100
REMARK   44  A    between atoms: _109  and  _111
REMARK   45  A    between atoms: _111  and  _112
REMARK   46  A    between atoms: _111  and  _114
REMARK   47  A    between atoms: _114  and  _115
REMARK   48  A    between atoms: _121  and  _123
REMARK   49  A    between atoms: _123  and  _124
REMARK   50  A    between atoms: _123  and  _126
REMARK   51  A    between atoms: _126  and  _127
REMARK   52  A    between atoms: _132  and  _134
REMARK   53  A    between atoms: _134  and  _135
REMARK   54  A    between atoms: _138  and  _140
REMARK   55  A    between atoms: _140  and  _141
REMARK   56  A    between atoms: _143  and  _145
REMARK   57  A    between atoms: _145  and  _146
REMARK   58  A    between atoms: _145  and  _148
REMARK   59  A    between atoms: _151  and  _153
REMARK   60  A    between atoms: _153  and  _154
REMARK   61  A    between atoms: _153  and  _156
REMARK   62  A    between atoms: _156  and  _157
REMARK   63  A    between atoms: _157  and  _158
REMARK   64  A    between atoms: _158  and  _159
REMARK   65  A    between atoms: _168  and  _170
REMARK   66  A    between atoms: _170  and  _171
REMARK   67  A    between atoms: _170  and  _173
REMARK   68  A    between atoms: _173  and  _174
REMARK   69  A    between atoms: _179  and  _180
REMARK   70  A    between atoms: _182  and  _184
REMARK   71  A    between atoms: _184  and  _185
REMARK   72  A    between atoms: _184  and  _187
REMARK   73  A    between atoms: _187  and  _188
REMARK   74  A    between atoms: _193  and  _194
REMARK   75  A    between atoms: _196  and  _198
REMARK   76  A    between atoms: _198  and  _199
REMARK   77  A    between atoms: _198  and  _201
REMARK   78  A    between atoms: _201  and  _202
REMARK   79  A    between atoms: _207  and  _209
REMARK   80  A    between atoms: _209  and  _210
REMARK   81  A    between atoms: _209  and  _212
REMARK   82  A    between atoms: _212  and  _213
REMARK   83  A    between atoms: _213  and  _214
REMARK   84  A    between atoms: _214  and  _215
REMARK   85  A    between atoms: _224  and  _226
REMARK   86  A    between atoms: _226  and  _227
REMARK   87  A    between atoms: _226  and  _229
REMARK   88  A    between atoms: _229  and  _230
REMARK   89  A    between atoms: _232  and  _234
REMARK   90  A    between atoms: _234  and  _235
REMARK   91  A    between atoms: _234  and  _237
REMARK   92  A    between atoms: _237  and  _238
REMARK   93  A    between atoms: _241  and  _243
REMARK   94  A    between atoms: _243  and  _244
REMARK   95  A    between atoms: _243  and  _246
REMARK   96  A    between atoms: _246  and  _247
REMARK   97  A    between atoms: _250  and  _252
REMARK   98  A    between atoms: _252  and  _253
REMARK   99  A    between atoms: _252  and  _255
REMARK  100  A    between atoms: _255  and  _256
REMARK  101  A    between atoms: _259  and  _261
REMARK  102  A    between atoms: _261  and  _262
REMARK  103  A    between atoms: _261  and  _264
REMARK  104  A    between atoms: _264  and  _265
REMARK  105  A    between atoms: _271  and  _273
REMARK  106  A    between atoms: _273  and  _274
REMARK  107  A    between atoms: _273  and  _276
REMARK  108  A    between atoms: _276  and  _277
REMARK  109  A    between atoms: _279  and  _281
REMARK  110  A    between atoms: _281  and  _282
REMARK  111  A    between atoms: _281  and  _284
REMARK  112  A    between atoms: _284  and  _285
REMARK  113  A    between atoms: _290  and  _291
REMARK  114  A    between atoms: _293  and  _295
REMARK  115  A    between atoms: _295  and  _296
REMARK  116  A    between atoms: _295  and  _298
REMARK  117  A    between atoms: _298  and  _299
REMARK  118  A    between atoms: _303  and  _304
REMARK  119  A    between atoms: _309  and  _311
REMARK  120  A    between atoms: _311  and  _312
REMARK  121  A    between atoms: _311  and  _314
REMARK  122  A    between atoms: _314  and  _315
REMARK  123  A    between atoms: _317  and  _319
REMARK  124  A    between atoms: _319  and  _320
REMARK  125  A    between atoms: _319  and  _322
REMARK  126  A    between atoms: _322  and  _323
REMARK  127  A    between atoms: _323  and  _324
REMARK  128  A    between atoms: _329  and  _331
REMARK  129  A    between atoms: _331  and  _332
REMARK  130  A    between atoms: _331  and  _334
REMARK  131  A    between atoms: _334  and  _335
REMARK  132  A    between atoms: _338  and  _340
REMARK  133  A    between atoms: _340  and  _341
REMARK  134  A    between atoms: _340  and  _343
REMARK  135  A    between atoms: _343  and  _344
REMARK  136  A    between atoms: _347  and  _349
REMARK  137  A    between atoms: _349  and  _350
REMARK  138  A    between atoms: _349  and  _352
REMARK  139  A    between atoms: _352  and  _353
REMARK  140  A    between atoms: _356  and  _358
REMARK  141  A    between atoms: _358  and  _359
REMARK  142  A    between atoms: _358  and  _361
REMARK  143  A    between atoms: _361  and  _362
REMARK  144  A    between atoms: _365  and  _367
REMARK  145  A    between atoms: _367  and  _368
REMARK  146  A    between atoms: _367  and  _370
REMARK  147  A    between atoms: _370  and  _371
REMARK  148  A    between atoms: _376  and  _378
REMARK  149  A    between atoms: _378  and  _379
REMARK  150  A    between atoms: _382  and  _384
REMARK  151  A    between atoms: _384  and  _385
REMARK  152  A    between atoms: _388  and  _390
REMARK  153  A    between atoms: _390  and  _391
REMARK  154  A    between atoms: _390  and  _393
REMARK  155  A    between atoms: _393  and  _394
REMARK  156  A    between atoms: _399  and  _400
REMARK  157  A    between atoms: _402  and  _404
REMARK  158  A    between atoms: _404  and  _405
REMARK  159  A    between atoms: _404  and  _407
REMARK  160  A    between atoms: _407  and  _408
REMARK  161  A    between atoms: _410  and  _412
REMARK  162  A    between atoms: _412  and  _413
REMARK  163  A    between atoms: _412  and  _415
REMARK  164  A    between atoms: _415  and  _416
REMARK  165  A    between atoms: _419  and  _421
REMARK  166  A    between atoms: _421  and  _422
REMARK  167  A    between atoms: _421  and  _424
REMARK  168  A    between atoms: _427  and  _429
REMARK  169  A    between atoms: _429  and  _430
REMARK  170  A    between atoms: _429  and  _432
REMARK  171  A    between atoms: _432  and  _433
REMARK  172  A    between atoms: _439  and  _441
REMARK  173  A    between atoms: _441  and  _442
REMARK  174  A    between atoms: _441  and  _444
REMARK  175  A    between atoms: _444  and  _445
REMARK  176  A    between atoms: _450  and  _452
REMARK  177  A    between atoms: _452  and  _453
REMARK  178  A    between atoms: _456  and  _458
REMARK  179  A    between atoms: _458  and  _459
REMARK  180  A    between atoms: _458  and  _461
REMARK  181  A    between atoms: _461  and  _462
REMARK  182  A    between atoms: _465  and  _467
REMARK  183  A    between atoms: _467  and  _468
REMARK  184  A    between atoms: _470  and  _472
REMARK  185  A    between atoms: _472  and  _473
REMARK  186  A    between atoms: _475  and  _477
REMARK  187  A    between atoms: _477  and  _478
REMARK  188  A    between atoms: _477  and  _480
REMARK  189  A    between atoms: _480  and  _481
REMARK  190  A    between atoms: _484  and  _486
REMARK  191  A    between atoms: _486  and  _487
REMARK  192  A    between atoms: _489  and  _491
REMARK  193  A    between atoms: _491  and  _492
REMARK  194  A    between atoms: _491  and  _494
REMARK  195  A    between atoms: _494  and  _495
REMARK  196  A    between atoms: _497  and  _499
REMARK  197  A    between atoms: _499  and  _500
REMARK  198  A    between atoms: _499  and  _502
REMARK  199  A    between atoms: _502  and  _503
REMARK                            x       y       z     vdW  Elec       q    Type
REMARK                         _______ _______ _______ _____ _____    ______ ____
ROOT
ATOM      1  CG  TYR A   1      19.459  40.073  72.403  0.00  0.00    -0.020 A 
ATOM      2  CD2 TYR A   1      20.069  41.214  71.907  0.00  0.00    -0.001 A 
ATOM      3  CE2 TYR A   1      21.005  41.121  70.879  0.00  0.00    +0.036 A 
ATOM      4  CZ  TYR A   1      21.308  39.967  70.267  0.00  0.00    +0.134 A 
ATOM      5  CE1 TYR A   1      20.739  38.796  70.716  0.00  0.00    +0.036 A 
ATOM      6  CD1 TYR A   1      19.774  38.869  71.786  0.00  0.00    -0.001 A 
ENDROOT
BRANCH   4   7
ATOM      7  OH  TYR A   1      22.248  39.953  69.269  0.00  0.00    -0.506 OA
ATOM      8  HH  TYR A   1      21.854  39.557  68.452  0.00  0.00    +0.292 HD
ENDBRANCH   4   7
BRANCH   1   9
ATOM      9  CB  TYR A   1      18.494  40.130  73.550  0.00  0.00    +0.051 C 
BRANCH   9  10
ATOM     10  CA  TYR A   1      17.030  40.538  73.280  0.00  0.00    +0.137 C 
BRANCH  10  11
ATOM     11  N   TYR A   1      16.408  39.667  72.318  0.00  0.00    -0.239 NA
ATOM     12  H   TYR A   1      16.858  39.480  71.399  0.00  0.00    +0.142 HD
ENDBRANCH  10  11
BRANCH  10  13
ATOM     13  C   TYR A   1      16.925  41.997  72.830  0.00  0.00    +0.224 C 
ATOM     14  O   TYR A   1      16.739  42.251  71.661  0.00  0.00    -0.287 OA
ENDBRANCH  10  13
ENDBRANCH   9  10
ENDBRANCH   1   9
TORSDOF 5
REMARK  Name = ../refined-set-2016/4a95/4a95_pocket.pdb
REMARK  199 active torsions:
REMARK  status: ('A' for Active; 'I' for Inactive)
REMARK    1  A    between atoms: _1  and  _3
REMARK    2  A    between atoms: _3  and  _4
REMARK    3  A    between atoms: _3  and  _6
REMARK    4  A    between atoms: _6  and  _7
REMARK    5  A    between atoms: _12  and  _13
REMARK    6  A    between atoms: _15  and  _17
REMARK    7  A    between atoms: _17  and  _18
REMARK    8  A    between atoms: _17  and  _20
REMARK    9  A    between atoms: _23  and  _25
REMARK   10  A    between atoms: _25  and  _26
REMARK   11  A    between atoms: _25  and  _28
REMARK   12  A    between atoms: _28  and  _29
REMARK   13  A    between atoms: _29  and  _30
REMARK   14  A    between atoms: _33  and  _35
REMARK   15  A    between atoms: _35  and  _36
REMARK   16  A    between atoms: _35  and  _38
REMARK   17  A    between atoms: _38  and  _39
REMARK   18  A    between atoms: _42  and  _44
REMARK   19  A    between atoms: _44  and  _45
REMARK   20  A    between atoms: _44  and  _47
REMARK   21  A    between atoms: _47  and  _48
REMARK   22  A    between atoms: _51  and  _53
REMARK   23  A    between atoms: _53  and  _54
REMARK   24  A    between atoms: _53  and  _56
REMARK   25  A    between atoms: _56  and  _57
REMARK   26  A    between atoms: _60  and  _62
REMARK   27  A    between atoms: _62  and  _63
REMARK   28  A    between atoms: _62  and  _65
REMARK   29  A    between atoms: _65  and  _66
REMARK   30  A    between atoms: _71  and  _73
REMARK   31  A    between atoms: _73  and  _74
REMARK   32  A    between atoms: _73  and  _76
REMARK   33  A    between atoms: _76  and  _77
REMARK   34  A    between atoms: _80  and  _82
REMARK   35  A    between atoms: _82  and  _83
REMARK   36  A    between atoms: _82  and  _85
REMARK   37  A    between atoms: _85  and  _86
REMARK   38  A    between atoms: _92  and  _94
REMARK   39  A    between atoms: _94  and  _95
REMARK   40  A    between atoms: _94  and  _97
REMARK   41  A    between atoms: _97  and  _98
REMARK   42  A    between atoms: _98  and  _99
REMARK   43  A    between atoms: _99  and  _100
REMARK   44  A    between atoms: _109  and  _111
REMARK   45  A    between atoms: _111  and  _112
REMARK   46  A    between atoms: _111  and  _114
REMARK   47  A    between atoms: _114  and  _115
REMARK   48  A    between atoms: _121  and  _123
REMARK   49  A    between atoms: _123  and  _124
REMARK   50  A    between atoms: _123  and  _126
REMARK   51  A    between atoms: _126  and  _127
REMARK   52  A    between atoms: _132  and  _134
REMARK   53  A    between atoms: _134  and  _135
REMARK   54  A    between atoms: _138  and  _140
REMARK   55  A    between atoms: _140  and  _141
REMARK   56  A    between atoms: _143  and  _145
REMARK   57  A    between atoms: _145  and  _146
REMARK   58  A    between atoms: _145  and  _148
REMARK   59  A    between atoms: _151  and  _153
REMARK   60  A    between atoms: _153  and  _154
REMARK   61  A    between atoms: _153  and  _156
REMARK   62  A    between atoms: _156  and  _157
REMARK   63  A    between atoms: _157  and  _158
REMARK   64  A    between atoms: _158  and  _159
REMARK   65  A    between atoms: _168  and  _170
REMARK   66  A    between atoms: _170  and  _171
REMARK   67  A    between atoms: _170  and  _173
REMARK   68  A    between atoms: _173  and  _174
REMARK   69  A    between atoms: _179  and  _180
REMARK   70  A    between atoms: _182  and  _184
REMARK   71  A    between atoms: _184  and  _185
REMARK   72  A    between atoms: _184  and  _187
REMARK   73  A    between atoms: _187  and  _188
REMARK   74  A    between atoms: _193  and  _194
REMARK   75  A    between atoms: _196  and  _198
REMARK   76  A    between atoms: _198  and  _199
REMARK   77  A    between atoms: _198  and  _201
REMARK   78  A    between atoms: _201  and  _202
REMARK   79  A    between atoms: _207  and  _209
REMARK   80  A    between atoms: _209  and  _210
REMARK   81  A    between atoms: _209  and  _212
REMARK   82  A    between atoms: _212  and  _213
REMARK   83  A    between atoms: _213  and  _214
REMARK   84  A    between atoms: _214  and  _215
REMARK   85  A    between atoms: _224  and  _226
REMARK   86  A    between atoms: _226  and  _227
REMARK   87  A    between atoms: _226  and  _229
REMARK   88  A    between atoms: _229  and  _230
REMARK   89  A    between atoms: _232  and  _234
REMARK   90  A    between atoms: _234  and  _235
REMARK   91  A    between atoms: _234  and  _237
REMARK   92  A    between atoms: _237  and  _238
REMARK   93  A    between atoms: _241  and  _243
REMARK   94  A    between atoms: _243  and  _244
REMARK   95  A    between atoms: _243  and  _246
REMARK   96  A    between atoms: _246  and  _247
REMARK   97  A    between atoms: _250  and  _252
REMARK   98  A    between atoms: _252  and  _253
REMARK   99  A    between atoms: _252  and  _255
REMARK  100  A    between atoms: _255  and  _256
REMARK  101  A    between atoms: _259  and  _261
REMARK  102  A    between atoms: _261  and  _262
REMARK  103  A    between atoms: _261  and  _264
REMARK  104  A    between atoms: _264  and  _265
REMARK  105  A    between atoms: _271  and  _273
REMARK  106  A    between atoms: _273  and  _274
REMARK  107  A    between atoms: _273  and  _276
REMARK  108  A    between atoms: _276  and  _277
REMARK  109  A    between atoms: _279  and  _281
REMARK  110  A    between atoms: _281  and  _282
REMARK  111  A    between atoms: _281  and  _284
REMARK  112  A    between atoms: _284  and  _285
REMARK  113  A    between atoms: _290  and  _291
REMARK  114  A    between atoms: _293  and  _295
REMARK  115  A    between atoms: _295  and  _296
REMARK  116  A    between atoms: _295  and  _298
REMARK  117  A    between atoms: _298  and  _299
REMARK  118  A    between atoms: _303  and  _304
REMARK  119  A    between atoms: _309  and  _311
REMARK  120  A    between atoms: _311  and  _312
REMARK  121  A    between atoms: _311  and  _314
REMARK  122  A    between atoms: _314  and  _315
REMARK  123  A    between atoms: _317  and  _319
REMARK  124  A    between atoms: _319  and  _320
REMARK  125  A    between atoms: _319  and  _322
REMARK  126  A    between atoms: _322  and  _323
REMARK  127  A    between atoms: _323  and  _324
REMARK  128  A    between atoms: _329  and  _331
REMARK  129  A    between atoms: _331  and  _332
REMARK  130  A    between atoms: _331  and  _334
REMARK  131  A    between atoms: _334  and  _335
REMARK  132  A    between atoms: _338  and  _340
REMARK  133  A    between atoms: _340  and  _341
REMARK  134  A    between atoms: _340  and  _343
REMARK  135  A    between atoms: _343  and  _344
REMARK  136  A    between atoms: _347  and  _349
REMARK  137  A    between atoms: _349  and  _350
REMARK  138  A    between atoms: _349  and  _352
REMARK  139  A    between atoms: _352  and  _353
REMARK  140  A    between atoms: _356  and  _358
REMARK  141  A    between atoms: _358  and  _359
REMARK  142  A    between atoms: _358  and  _361
REMARK  143  A    between atoms: _361  and  _362
REMARK  144  A    between atoms: _365  and  _367
REMARK  145  A    between atoms: _367  and  _368
REMARK  146  A    between atoms: _367  and  _370
REMARK  147  A    between atoms: _370  and  _371
REMARK  148  A    between atoms: _376  and  _378
REMARK  149  A    between atoms: _378  and  _379
REMARK  150  A    between atoms: _382  and  _384
REMARK  151  A    between atoms: _384  and  _385
REMARK  152  A    between atoms: _388  and  _390
REMARK  153  A    between atoms: _390  and  _391
REMARK  154  A    between atoms: _390  and  _393
REMARK  155  A    between atoms: _393  and  _394
REMARK  156  A    between atoms: _399  and  _400
REMARK  157  A    between atoms: _402  and  _404
REMARK  158  A    between atoms: _404  and  _405
REMARK  159  A    between atoms: _404  and  _407
REMARK  160  A    between atoms: _407  and  _408
REMARK  161  A    between atoms: _410  and  _412
REMARK  162  A    between atoms: _412  and  _413
REMARK  163  A    between atoms: _412  and  _415
REMARK  164  A    between atoms: _415  and  _416
REMARK  165  A    between atoms: _419  and  _421
REMARK  166  A    between atoms: _421  and  _422
REMARK  167  A    between atoms: _421  and  _424
REMARK  168  A    between atoms: _427  and  _429
REMARK  169  A    between atoms: _429  and  _430
REMARK  170  A    between atoms: _429  and  _432
REMARK  171  A    between atoms: _432  and  _433
REMARK  172  A    between atoms: _439  and  _441
REMARK  173  A    between atoms: _441  and  _442
REMARK  174  A    between atoms: _441  and  _444
REMARK  175  A    between atoms: _444  and  _445
REMARK  176  A    between atoms: _450  and  _452
REMARK  177  A    between atoms: _452  and  _453
REMARK  178  A    between atoms: _456  and  _458
REMARK  179  A    between atoms: _458  and  _459
REMARK  180  A    between atoms: _458  and  _461
REMARK  181  A    between atoms: _461  and  _462
REMARK  182  A    between atoms: _465  and  _467
REMARK  183  A    between atoms: _467  and  _468
REMARK  184  A    between atoms: _470  and  _472
REMARK  185  A    between atoms: _472  and  _473
REMARK  186  A    between atoms: _475  and  _477
REMARK  187  A    between atoms: _477  and  _478
REMARK  188  A    between atoms: _477  and  _480
REMARK  189  A    between atoms: _480  and  _481
REMARK  190  A    between atoms: _484  and  _486
REMARK  191  A    between atoms: _486  and  _487
REMARK  192  A    between atoms: _489  and  _491
REMARK  193  A    between atoms: _491  and  _492
REMARK  194  A    between atoms: _491  and  _494
REMARK  195  A    between atoms: _494  and  _495
REMARK  196  A    between atoms: _497  and  _499
REMARK  197  A    between atoms: _499  and  _500
REMARK  198  A    between atoms: _499  and  _502
REMARK  199  A    between atoms: _502  and  _503
REMARK                            x       y       z     vdW  Elec       q    Type
REMARK                         _______ _______ _______ _____ _____    ______ ____
ROOT
ATOM      1  CA  GLN A   4      22.421  55.530  69.240  0.00  0.00    +0.149 C 
ENDROOT
BRANCH   1   3
ATOM      2  C   SER A   3      21.353  53.397  69.049  0.00  0.00    +0.243 C 
ATOM      3  N   GLN A   4      22.462  54.091  69.244  0.00  0.00    -0.297 N 
ATOM      4  H   GLN A   4      23.364  53.597  69.400  0.00  0.00    +0.150 HD
ATOM      5  O   SER A   3      20.217  53.879  68.991  0.00  0.00    -0.273 OA
BRANCH   2   6
ATOM      6  CA  SER A   3      21.559  51.928  68.850  0.00  0.00    +0.178 C 
BRANCH   6   9
ATOM      7  C   PRO A   2      20.545  50.323  70.328  0.00  0.00    +0.241 C 
ATOM      8  O   PRO A   2      21.658  49.846  70.652  0.00  0.00    -0.273 OA
ATOM      9  N   SER A   3      20.392  51.298  69.409  0.00  0.00    -0.295 N 
ATOM     10  H   SER A   3      19.441  51.591  69.107  0.00  0.00    +0.150 HD
BRANCH   7  16
ATOM     11  C   LEU A   1      19.617  47.472  71.090  0.00  0.00    +0.241 C 
ATOM     12  N   PRO A   2      19.543  48.581  71.831  0.00  0.00    -0.272 N 
ATOM     13  CD  PRO A   2      19.461  48.760  73.297  0.00  0.00    +0.094 C 
ATOM     14  CG  PRO A   2      19.341  50.268  73.428  0.00  0.00    +0.024 C 
ATOM     15  CB  PRO A   2      18.899  50.855  72.164  0.00  0.00    +0.031 C 
ATOM     16  CA  PRO A   2      19.313  49.858  71.078  0.00  0.00    +0.152 C 
ATOM     17  O   LEU A   1      19.493  47.487  69.861  0.00  0.00    -0.273 OA
BRANCH  11  18
ATOM     18  CA  LEU A   1      19.919  46.158  71.807  0.00  0.00    +0.145 C 
BRANCH  18  19
ATOM     19  N   LEU A   1      18.587  45.564  72.044  0.00  0.00    -0.238 NA
ATOM     20  H   LEU A   1      17.840  45.648  71.325  0.00  0.00    +0.142 HD
ENDBRANCH  18  19
BRANCH  18  21
ATOM     21  CB  LEU A   1      20.855  45.250  70.991  0.00  0.00    +0.026 C 
BRANCH  21  22
ATOM     22  CG  LEU A   1      22.199  45.863  70.464  0.00  0.00    +0.002 C 
ATOM     23  CD2 LEU A   1      22.950  46.653  71.569  0.00  0.00    +0.000 C 
ATOM     24  CD1 LEU A   1      22.996  44.800  69.881  0.00  0.00    +0.000 C 
ENDBRANCH  21  22
ENDBRANCH  18  21
ENDBRANCH  11  18
ENDBRANCH   7  16
ENDBRANCH   6   9
BRANCH   6  25
ATOM     25  CB  SER A   3      21.710  51.708  67.369  0.00  0.00    +0.166 C 
BRANCH  25  26
ATOM     26  OG  SER A   3      22.055  50.387  67.085  0.00  0.00    -0.380 OA
ATOM     27  H   SER A   3      22.147  50.274  66.106  0.00  0.00    +0.211 HD
ENDBRANCH  25  26
ENDBRANCH   6  25
ENDBRANCH   2   6
ENDBRANCH   1   3
BRANCH   1  28
ATOM     28  C   GLN A   4      22.318  55.900  67.748  0.00  0.00    +0.241 C 
ATOM     29  N   ILE A   5      21.423  56.845  67.463  0.00  0.00    -0.297 N 
ATOM     30  H   ILE A   5      20.797  57.184  68.221  0.00  0.00    +0.150 HD
ATOM     31  O   GLN A   4      23.003  55.352  66.899  0.00  0.00    -0.273 OA
BRANCH  29  32
ATOM     32  CA  ILE A   5      21.283  57.435  66.106  0.00  0.00    +0.149 C 
BRANCH  32  33
ATOM     33  C   ILE A   5      22.212  58.651  66.068  0.00  0.00    +0.241 C 
ATOM     34  O   ILE A   5      22.015  59.585  66.799  0.00  0.00    -0.273 OA
ATOM     35  N   LEU A   6      23.233  58.595  65.227  0.00  0.00    -0.298 N 
ATOM     36  H   LEU A   6      23.309  57.809  64.551  0.00  0.00    +0.150 HD
BRANCH  35  37
ATOM     37  CA  LEU A   6      24.273  59.662  65.252  0.00  0.00    +0.137 C 
BRANCH  37  38
ATOM     38  C   LEU A   6      23.825  60.947  64.522  0.00  0.00    +0.227 C 
ATOM     39  O   LEU A   6      23.376  60.874  63.411  0.00  0.00    -0.286 OA
ENDBRANCH  37  38
BRANCH  37  40
ATOM     40  CB  LEU A   6      25.580  59.112  64.657  0.00  0.00    +0.028 C 
BRANCH  40  41
ATOM     41  CG  LEU A   6      26.060  57.827  65.421  0.00  0.00    +0.002 C 
ATOM     42  CD2 LEU A   6      26.310  58.055  66.938  0.00  0.00    +0.000 C 
ATOM     43  CD1 LEU A   6      27.184  57.104  64.691  0.00  0.00    +0.000 C 
ENDBRANCH  40  41
ENDBRANCH  37  40
ENDBRANCH  35  37
ENDBRANCH  32  33
BRANCH  32  44
ATOM     44  CB  ILE A   5      19.827  57.851  65.839  0.00  0.00    +0.027 C 
ATOM     45  CG2 ILE A   5      19.718  58.288  64.351  0.00  0.00    +0.002 C 
BRANCH  44  46
ATOM     46  CG1 ILE A   5      18.923  56.636  66.047  0.00  0.00    +0.002 C 
ATOM     47  CD1 ILE A   5      17.473  56.948  66.105  0.00  0.00    +0.000 C 
ENDBRANCH  44  46
ENDBRANCH  32  44
ENDBRANCH  29  32
ENDBRANCH   1  28
BRANCH   1  48
ATOM     48  CB  GLN A   4      23.713  56.044  69.823  0.00  0.00    +0.039 C 
BRANCH  48  49
ATOM     49  CG  GLN A   4      23.799  57.524  69.889  0.00  0.00    +0.087 C 
BRANCH  49  50
ATOM     50  CD  GLN A   4      25.116  57.965  70.567  0.00  0.00    +0.219 C 
ATOM     51  OE1 GLN A   4      25.864  57.136  71.187  0.00  0.00    -0.275 OA
ATOM     52  NE2 GLN A   4      25.414  59.269  70.452  0.00  0.00    -0.329 N 
ATOM     53 HE21 GLN A   4      26.286  59.643  70.878  0.00  0.00    +0.145 HD
ATOM     54 HE22 GLN A   4      24.773  59.905  69.937  0.00  0.00    +0.145 HD
ENDBRANCH  49  50
ENDBRANCH  48  49
ENDBRANCH   1  48
TORSDOF 22
REMARK  Name = ../refined-set-2016/4a95/4a95_pocket.pdb
REMARK  199 active torsions:
REMARK  status: ('A' for Active; 'I' for Inactive)
REMARK    1  A    between atoms: _1  and  _3
REMARK    2  A    between atoms: _3  and  _4
REMARK    3  A    between atoms: _3  and  _6
REMARK    4  A    between atoms: _6  and  _7
REMARK    5  A    between atoms: _12  and  _13
REMARK    6  A    between atoms: _15  and  _17
REMARK    7  A    between atoms: _17  and  _18
REMARK    8  A    between atoms: _17  and  _20
REMARK    9  A    between atoms: _23  and  _25
REMARK   10  A    between atoms: _25  and  _26
REMARK   11  A    between atoms: _25  and  _28
REMARK   12  A    between atoms: _28  and  _29
REMARK   13  A    between atoms: _29  and  _30
REMARK   14  A    between atoms: _33  and  _35
REMARK   15  A    between atoms: _35  and  _36
REMARK   16  A    between atoms: _35  and  _38
REMARK   17  A    between atoms: _38  and  _39
REMARK   18  A    between atoms: _42  and  _44
REMARK   19  A    between atoms: _44  and  _45
REMARK   20  A    between atoms: _44  and  _47
REMARK   21  A    between atoms: _47  and  _48
REMARK   22  A    between atoms: _51  and  _53
REMARK   23  A    between atoms: _53  and  _54
REMARK   24  A    between atoms: _53  and  _56
REMARK   25  A    between atoms: _56  and  _57
REMARK   26  A    between atoms: _60  and  _62
REMARK   27  A    between atoms: _62  and  _63
REMARK   28  A    between atoms: _62  and  _65
REMARK   29  A    between atoms: _65  and  _66
REMARK   30  A    between atoms: _71  and  _73
REMARK   31  A    between atoms: _73  and  _74
REMARK   32  A    between atoms: _73  and  _76
REMARK   33  A    between atoms: _76  and  _77
REMARK   34  A    between atoms: _80  and  _82
REMARK   35  A    between atoms: _82  and  _83
REMARK   36  A    between atoms: _82  and  _85
REMARK   37  A    between atoms: _85  and  _86
REMARK   38  A    between atoms: _92  and  _94
REMARK   39  A    between atoms: _94  and  _95
REMARK   40  A    between atoms: _94  and  _97
REMARK   41  A    between atoms: _97  and  _98
REMARK   42  A    between atoms: _98  and  _99
REMARK   43  A    between atoms: _99  and  _100
REMARK   44  A    between atoms: _109  and  _111
REMARK   45  A    between atoms: _111  and  _112
REMARK   46  A    between atoms: _111  and  _114
REMARK   47  A    between atoms: _114  and  _115
REMARK   48  A    between atoms: _121  and  _123
REMARK   49  A    between atoms: _123  and  _124
REMARK   50  A    between atoms: _123  and  _126
REMARK   51  A    between atoms: _126  and  _127
REMARK   52  A    between atoms: _132  and  _134
REMARK   53  A    between atoms: _134  and  _135
REMARK   54  A    between atoms: _138  and  _140
REMARK   55  A    between atoms: _140  and  _141
REMARK   56  A    between atoms: _143  and  _145
REMARK   57  A    between atoms: _145  and  _146
REMARK   58  A    between atoms: _145  and  _148
REMARK   59  A    between atoms: _151  and  _153
REMARK   60  A    between atoms: _153  and  _154
REMARK   61  A    between atoms: _153  and  _156
REMARK   62  A    between atoms: _156  and  _157
REMARK   63  A    between atoms: _157  and  _158
REMARK   64  A    between atoms: _158  and  _159
REMARK   65  A    between atoms: _168  and  _170
REMARK   66  A    between atoms: _170  and  _171
REMARK   67  A    between atoms: _170  and  _173
REMARK   68  A    between atoms: _173  and  _174
REMARK   69  A    between atoms: _179  and  _180
REMARK   70  A    between atoms: _182  and  _184
REMARK   71  A    between atoms: _184  and  _185
REMARK   72  A    between atoms: _184  and  _187
REMARK   73  A    between atoms: _187  and  _188
REMARK   74  A    between atoms: _193  and  _194
REMARK   75  A    between atoms: _196  and  _198
REMARK   76  A    between atoms: _198  and  _199
REMARK   77  A    between atoms: _198  and  _201
REMARK   78  A    between atoms: _201  and  _202
REMARK   79  A    between atoms: _207  and  _209
REMARK   80  A    between atoms: _209  and  _210
REMARK   81  A    between atoms: _209  and  _212
REMARK   82  A    between atoms: _212  and  _213
REMARK   83  A    between atoms: _213  and  _214
REMARK   84  A    between atoms: _214  and  _215
REMARK   85  A    between atoms: _224  and  _226
REMARK   86  A    between atoms: _226  and  _227
REMARK   87  A    between atoms: _226  and  _229
REMARK   88  A    between atoms: _229  and  _230
REMARK   89  A    between atoms: _232  and  _234
REMARK   90  A    between atoms: _234  and  _235
REMARK   91  A    between atoms: _234  and  _237
REMARK   92  A    between atoms: _237  and  _238
REMARK   93  A    between atoms: _241  and  _243
REMARK   94  A    between atoms: _243  and  _244
REMARK   95  A    between atoms: _243  and  _246
REMARK   96  A    between atoms: _246  and  _247
REMARK   97  A    between atoms: _250  and  _252
REMARK   98  A    between atoms: _252  and  _253
REMARK   99  A    between atoms: _252  and  _255
REMARK  100  A    between atoms: _255  and  _256
REMARK  101  A    between atoms: _259  and  _261
REMARK  102  A    between atoms: _261  and  _262
REMARK  103  A    between atoms: _261  and  _264
REMARK  104  A    between atoms: _264  and  _265
REMARK  105  A    between atoms: _271  and  _273
REMARK  106  A    between atoms: _273  and  _274
REMARK  107  A    between atoms: _273  and  _276
REMARK  108  A    between atoms: _276  and  _277
REMARK  109  A    between atoms: _279  and  _281
REMARK  110  A    between atoms: _281  and  _282
REMARK  111  A    between atoms: _281  and  _284
REMARK  112  A    between atoms: _284  and  _285
REMARK  113  A    between atoms: _290  and  _291
REMARK  114  A    between atoms: _293  and  _295
REMARK  115  A    between atoms: _295  and  _296
REMARK  116  A    between atoms: _295  and  _298
REMARK  117  A    between atoms: _298  and  _299
REMARK  118  A    between atoms: _303  and  _304
REMARK  119  A    between atoms: _309  and  _311
REMARK  120  A    between atoms: _311  and  _312
REMARK  121  A    between atoms: _311  and  _314
REMARK  122  A    between atoms: _314  and  _315
REMARK  123  A    between atoms: _317  and  _319
REMARK  124  A    between atoms: _319  and  _320
REMARK  125  A    between atoms: _319  and  _322
REMARK  126  A    between atoms: _322  and  _323
REMARK  127  A    between atoms: _323  and  _324
REMARK  128  A    between atoms: _329  and  _331
REMARK  129  A    between atoms: _331  and  _332
REMARK  130  A    between atoms: _331  and  _334
REMARK  131  A    between atoms: _334  and  _335
REMARK  132  A    between atoms: _338  and  _340
REMARK  133  A    between atoms: _340  and  _341
REMARK  134  A    between atoms: _340  and  _343
REMARK  135  A    between atoms: _343  and  _344
REMARK  136  A    between atoms: _347  and  _349
REMARK  137  A    between atoms: _349  and  _350
REMARK  138  A    between atoms: _349  and  _352
REMARK  139  A    between atoms: _352  and  _353
REMARK  140  A    between atoms: _356  and  _358
REMARK  141  A    between atoms: _358  and  _359
REMARK  142  A    between atoms: _358  and  _361
REMARK  143  A    between atoms: _361  and  _362
REMARK  144  A    between atoms: _365  and  _367
REMARK  145  A    between atoms: _367  and  _368
REMARK  146  A    between atoms: _367  and  _370
REMARK  147  A    between atoms: _370  and  _371
REMARK  148  A    between atoms: _376  and  _378
REMARK  149  A    between atoms: _378  and  _379
REMARK  150  A    between atoms: _382  and  _384
REMARK  151  A    between atoms: _384  and  _385
REMARK  152  A    between atoms: _388  and  _390
REMARK  153  A    between atoms: _390  and  _391
REMARK  154  A    between atoms: _390  and  _393
REMARK  155  A    between atoms: _393  and  _394
REMARK  156  A    between atoms: _399  and  _400
REMARK  157  A    between atoms: _402  and  _404
REMARK  158  A    between atoms: _404  and  _405
REMARK  159  A    between atoms: _404  and  _407
REMARK  160  A    between atoms: _407  and  _408
REMARK  161  A    between atoms: _410  and  _412
REMARK  162  A    between atoms: _412  and  _413
REMARK  163  A    between atoms: _412  and  _415
REMARK  164  A    between atoms: _415  and  _416
REMARK  165  A    between atoms: _419  and  _421
REMARK  166  A    between atoms: _421  and  _422
REMARK  167  A    between atoms: _421  and  _424
REMARK  168  A    between atoms: _427  and  _429
REMARK  169  A    between atoms: _429  and  _430
REMARK  170  A    between atoms: _429  and  _432
REMARK  171  A    between atoms: _432  and  _433
REMARK  172  A    between atoms: _439  and  _441
REMARK  173  A    between atoms: _441  and  _442
REMARK  174  A    between atoms: _441  and  _444
REMARK  175  A    between atoms: _444  and  _445
REMARK  176  A    between atoms: _450  and  _452
REMARK  177  A    between atoms: _452  and  _453
REMARK  178  A    between atoms: _456  and  _458
REMARK  179  A    between atoms: _458  and  _459
REMARK  180  A    between atoms: _458  and  _461
REMARK  181  A    between atoms: _461  and  _462
REMARK  182  A    between atoms: _465  and  _467
REMARK  183  A    between atoms: _467  and  _468
REMARK  184  A    between atoms: _470  and  _472
REMARK  185  A    between atoms: _472  and  _473
REMARK  186  A    between atoms: _475  and  _477
REMARK  187  A    between atoms: _477  and  _478
REMARK  188  A    between atoms: _477  and  _480
REMARK  189  A    between atoms: _480  and  _481
REMARK  190  A    between atoms: _484  and  _486
REMARK  191  A    between atoms: _486  and  _487
REMARK  192  A    between atoms: _489  and  _491
REMARK  193  A    between atoms: _491  and  _492
REMARK  194  A    between atoms: _491  and  _494
REMARK  195  A    between atoms: _494  and  _495
REMARK  196  A    between atoms: _497  and  _499
REMARK  197  A    between atoms: _499  and  _500
REMARK  198  A    between atoms: _499  and  _502
REMARK  199  A    between atoms: _502  and  _503
REMARK                            x       y       z     vdW  Elec       q    Type
REMARK                         _______ _______ _______ _____ _____    ______ ____
ROOT
ATOM      1  CA  ALA A   4      15.655  47.182  68.330  0.00  0.00    +0.149 C 
ATOM      2  CB  ALA A   4      16.973  47.261  67.475  0.00  0.00    +0.031 C 
ENDROOT
BRANCH   1   4
ATOM      3  C   ASN A   3      14.881  49.319  69.051  0.00  0.00    +0.241 C 
ATOM      4  N   ALA A   4      15.635  48.245  69.288  0.00  0.00    -0.297 N 
ATOM      5  H   ALA A   4      16.201  48.181  70.158  0.00  0.00    +0.150 HD
ATOM      6  O   ASN A   3      14.084  49.341  68.119  0.00  0.00    -0.273 OA
BRANCH   3   7
ATOM      7  CA  ASN A   3      15.036  50.514  69.974  0.00  0.00    +0.158 C 
BRANCH   7   9
ATOM      8  C   LEU A   2      16.405  52.087  68.728  0.00  0.00    +0.241 C 
ATOM      9  N   ASN A   3      15.194  51.705  69.139  0.00  0.00    -0.297 N 
ATOM     10  H   ASN A   3      14.357  52.258  68.864  0.00  0.00    +0.150 HD
ATOM     11  O   LEU A   2      17.426  51.526  69.038  0.00  0.00    -0.273 OA
BRANCH   8  12
ATOM     12  CA  LEU A   2      16.478  53.358  67.884  0.00  0.00    +0.149 C 
BRANCH  12  15
ATOM     13  C   THR A   1      16.921  55.337  69.213  0.00  0.00    +0.241 C 
ATOM     14  O   THR A   1      15.789  55.769  68.993  0.00  0.00    -0.274 OA
ATOM     15  N   LEU A   2      17.409  54.248  68.626  0.00  0.00    -0.297 N 
ATOM     16  H   LEU A   2      18.423  54.023  68.685  0.00  0.00    +0.150 HD
BRANCH  13  17
ATOM     17  CA  THR A   1      17.816  56.083  70.142  0.00  0.00    +0.172 C 
BRANCH  17  18
ATOM     18  N   THR A   1      17.725  57.545  69.931  0.00  0.00    -0.236 NA
ATOM     19  H   THR A   1      16.780  57.979  69.914  0.00  0.00    +0.142 HD
ENDBRANCH  17  18
BRANCH  17  20
ATOM     20  CB  THR A   1      17.385  55.801  71.595  0.00  0.00    +0.135 C 
ATOM     21  CG2 THR A   1      17.523  54.321  71.933  0.00  0.00    +0.034 C 
BRANCH  20  22
ATOM     22  OG1 THR A   1      18.295  56.539  72.441  0.00  0.00    -0.383 OA
ATOM     23  HG1 THR A   1      18.229  57.504  72.232  0.00  0.00    +0.210 HD
ENDBRANCH  20  22
ENDBRANCH  17  20
ENDBRANCH  13  17
ENDBRANCH  12  15
BRANCH  12  24
ATOM     24  CB  LEU A   2      17.066  52.995  66.544  0.00  0.00    +0.029 C 
BRANCH  24  25
ATOM     25  CG  LEU A   2      16.109  52.051  65.744  0.00  0.00    +0.002 C 
ATOM     26  CD2 LEU A   2      15.057  52.914  65.098  0.00  0.00    +0.000 C 
ATOM     27  CD1 LEU A   2      16.807  51.391  64.706  0.00  0.00    +0.000 C 
ENDBRANCH  24  25
ENDBRANCH  12  24
ENDBRANCH   8  12
ENDBRANCH   7   9
BRANCH   7  28
ATOM     28  CB  ASN A   3      13.847  50.652  70.931  0.00  0.00    +0.114 C 
BRANCH  28  29
ATOM     29  CG  ASN A   3      14.218  51.453  72.182  0.00  0.00    +0.222 C 
ATOM     30  ND2 ASN A   3      15.296  51.023  72.859  0.00  0.00    -0.329 N 
ATOM     31 HD21 ASN A   3      15.668  51.582  73.653  0.00  0.00    +0.145 HD
ATOM     32 HD22 ASN A   3      15.758  50.131  72.589  0.00  0.00    +0.145 HD
ATOM     33  OD1 ASN A   3      13.630  52.507  72.462  0.00  0.00    -0.275 OA
ENDBRANCH  28  29
ENDBRANCH   7  28
ENDBRANCH   3   7
ENDBRANCH   1   4
BRANCH   1  34
ATOM     34  C   ALA A   4      15.601  45.887  69.119  0.00  0.00    +0.241 C 
ATOM     35  O   ALA A   4      16.307  45.763  70.126  0.00  0.00    -0.273 OA
ATOM     36  N   ALA A   5      14.763  44.960  68.696  0.00  0.00    -0.297 N 
ATOM     37  H   ALA A   5      14.069  45.207  67.962  0.00  0.00    +0.150 HD
BRANCH  36  38
ATOM     38  CA  ALA A   5      14.777  43.614  69.218  0.00  0.00    +0.149 C 
ATOM     39  CB  ALA A   5      13.296  43.150  69.334  0.00  0.00    +0.031 C 
BRANCH  38  40
ATOM     40  C   ALA A   5      15.513  42.761  68.214  0.00  0.00    +0.241 C 
ATOM     41  N   TYR A   6      16.268  41.809  68.766  0.00  0.00    -0.297 N 
ATOM     42  H   TYR A   6      16.260  41.728  69.803  0.00  0.00    +0.150 HD
ATOM     43  O   ALA A   5      15.376  42.914  66.982  0.00  0.00    -0.273 OA
BRANCH  41  44
ATOM     44  CA  TYR A   6      17.094  40.884  68.029  0.00  0.00    +0.153 C 
BRANCH  44  45
ATOM     45  C   TYR A   6      16.635  39.483  68.392  0.00  0.00    +0.241 C 
ATOM     46  O   TYR A   6      16.665  39.065  69.539  0.00  0.00    -0.273 OA
ATOM     47  N   SER A   7      16.250  38.766  67.346  0.00  0.00    -0.296 N 
ATOM     48  H   SER A   7      16.279  39.212  66.407  0.00  0.00    +0.150 HD
BRANCH  47  49
ATOM     49  CA  SER A   7      15.790  37.393  67.440  0.00  0.00    +0.166 C 
BRANCH  49  50
ATOM     50  CB  SER A   7      16.897  36.567  68.077  0.00  0.00    +0.229 C 
ATOM     51  OG  SER A   7      18.082  36.644  67.734  0.00  0.00    -0.286 OA
ENDBRANCH  49  50
BRANCH  49  52
ATOM     52  C   SER A   7      15.492  36.884  66.034  0.00  0.00    +0.165 C 
BRANCH  52  53
ATOM     53  O   SER A   7      15.091  35.499  66.101  0.00  0.00    -0.380 OA
ATOM     54  H   SER A   7      15.823  34.964  66.499  0.00  0.00    +0.211 HD
ENDBRANCH  52  53
ENDBRANCH  49  52
ENDBRANCH  47  49
ENDBRANCH  44  45
BRANCH  44  55
ATOM     55  CB  TYR A   6      18.627  41.007  68.382  0.00  0.00    +0.055 C 
BRANCH  55  56
ATOM     56  CG  TYR A   6      19.228  42.211  67.766  0.00  0.00    -0.020 A 
ATOM     57  CD2 TYR A   6      19.008  43.445  68.324  0.00  0.00    -0.001 A 
ATOM     58  CE2 TYR A   6      19.535  44.652  67.716  0.00  0.00    +0.036 A 
ATOM     59  CZ  TYR A   6      20.264  44.507  66.566  0.00  0.00    +0.134 A 
ATOM     60  CE1 TYR A   6      20.523  43.275  66.000  0.00  0.00    +0.036 A 
ATOM     61  CD1 TYR A   6      19.986  42.094  66.608  0.00  0.00    -0.001 A 
BRANCH  59  62
ATOM     62  OH  TYR A   6      20.789  45.694  66.014  0.00  0.00    -0.506 OA
ATOM     63  HH  TYR A   6      20.494  46.468  66.557  0.00  0.00    +0.292 HD
ENDBRANCH  59  62
ENDBRANCH  55  56
ENDBRANCH  44  55
ENDBRANCH  41  44
ENDBRANCH  38  40
ENDBRANCH  36  38
ENDBRANCH   1  34
TORSDOF 25
REMARK  Name = ../refined-set-2016/4a95/4a95_pocket.pdb
REMARK  199 active torsions:
REMARK  status: ('A' for Active; 'I' for Inactive)
REMARK    1  A    between atoms: _1  and  _3
REMARK    2  A    between atoms: _3  and  _4
REMARK    3  A    between atoms: _3  and  _6
REMARK    4  A    between atoms: _6  and  _7
REMARK    5  A    between atoms: _12  and  _13
REMARK    6  A    between atoms: _15  and  _17
REMARK    7  A    between atoms: _17  and  _18
REMARK    8  A    between atoms: _17  and  _20
REMARK    9  A    between atoms: _23  and  _25
REMARK   10  A    between atoms: _25  and  _26
REMARK   11  A    between atoms: _25  and  _28
REMARK   12  A    between atoms: _28  and  _29
REMARK   13  A    between atoms: _29  and  _30
REMARK   14  A    between atoms: _33  and  _35
REMARK   15  A    between atoms: _35  and  _36
REMARK   16  A    between atoms: _35  and  _38
REMARK   17  A    between atoms: _38  and  _39
REMARK   18  A    between atoms: _42  and  _44
REMARK   19  A    between atoms: _44  and  _45
REMARK   20  A    between atoms: _44  and  _47
REMARK   21  A    between atoms: _47  and  _48
REMARK   22  A    between atoms: _51  and  _53
REMARK   23  A    between atoms: _53  and  _54
REMARK   24  A    between atoms: _53  and  _56
REMARK   25  A    between atoms: _56  and  _57
REMARK   26  A    between atoms: _60  and  _62
REMARK   27  A    between atoms: _62  and  _63
REMARK   28  A    between atoms: _62  and  _65
REMARK   29  A    between atoms: _65  and  _66
REMARK   30  A    between atoms: _71  and  _73
REMARK   31  A    between atoms: _73  and  _74
REMARK   32  A    between atoms: _73  and  _76
REMARK   33  A    between atoms: _76  and  _77
REMARK   34  A    between atoms: _80  and  _82
REMARK   35  A    between atoms: _82  and  _83
REMARK   36  A    between atoms: _82  and  _85
REMARK   37  A    between atoms: _85  and  _86
REMARK   38  A    between atoms: _92  and  _94
REMARK   39  A    between atoms: _94  and  _95
REMARK   40  A    between atoms: _94  and  _97
REMARK   41  A    between atoms: _97  and  _98
REMARK   42  A    between atoms: _98  and  _99
REMARK   43  A    between atoms: _99  and  _100
REMARK   44  A    between atoms: _109  and  _111
REMARK   45  A    between atoms: _111  and  _112
REMARK   46  A    between atoms: _111  and  _114
REMARK   47  A    between atoms: _114  and  _115
REMARK   48  A    between atoms: _121  and  _123
REMARK   49  A    between atoms: _123  and  _124
REMARK   50  A    between atoms: _123  and  _126
REMARK   51  A    between atoms: _126  and  _127
REMARK   52  A    between atoms: _132  and  _134
REMARK   53  A    between atoms: _134  and  _135
REMARK   54  A    between atoms: _138  and  _140
REMARK   55  A    between atoms: _140  and  _141
REMARK   56  A    between atoms: _143  and  _145
REMARK   57  A    between atoms: _145  and  _146
REMARK   58  A    between atoms: _145  and  _148
REMARK   59  A    between atoms: _151  and  _153
REMARK   60  A    between atoms: _153  and  _154
REMARK   61  A    between atoms: _153  and  _156
REMARK   62  A    between atoms: _156  and  _157
REMARK   63  A    between atoms: _157  and  _158
REMARK   64  A    between atoms: _158  and  _159
REMARK   65  A    between atoms: _168  and  _170
REMARK   66  A    between atoms: _170  and  _171
REMARK   67  A    between atoms: _170  and  _173
REMARK   68  A    between atoms: _173  and  _174
REMARK   69  A    between atoms: _179  and  _180
REMARK   70  A    between atoms: _182  and  _184
REMARK   71  A    between atoms: _184  and  _185
REMARK   72  A    between atoms: _184  and  _187
REMARK   73  A    between atoms: _187  and  _188
REMARK   74  A    between atoms: _193  and  _194
REMARK   75  A    between atoms: _196  and  _198
REMARK   76  A    between atoms: _198  and  _199
REMARK   77  A    between atoms: _198  and  _201
REMARK   78  A    between atoms: _201  and  _202
REMARK   79  A    between atoms: _207  and  _209
REMARK   80  A    between atoms: _209  and  _210
REMARK   81  A    between atoms: _209  and  _212
REMARK   82  A    between atoms: _212  and  _213
REMARK   83  A    between atoms: _213  and  _214
REMARK   84  A    between atoms: _214  and  _215
REMARK   85  A    between atoms: _224  and  _226
REMARK   86  A    between atoms: _226  and  _227
REMARK   87  A    between atoms: _226  and  _229
REMARK   88  A    between atoms: _229  and  _230
REMARK   89  A    between atoms: _232  and  _234
REMARK   90  A    between atoms: _234  and  _235
REMARK   91  A    between atoms: _234  and  _237
REMARK   92  A    between atoms: _237  and  _238
REMARK   93  A    between atoms: _241  and  _243
REMARK   94  A    between atoms: _243  and  _244
REMARK   95  A    between atoms: _243  and  _246
REMARK   96  A    between atoms: _246  and  _247
REMARK   97  A    between atoms: _250  and  _252
REMARK   98  A    between atoms: _252  and  _253
REMARK   99  A    between atoms: _252  and  _255
REMARK  100  A    between atoms: _255  and  _256
REMARK  101  A    between atoms: _259  and  _261
REMARK  102  A    between atoms: _261  and  _262
REMARK  103  A    between atoms: _261  and  _264
REMARK  104  A    between atoms: _264  and  _265
REMARK  105  A    between atoms: _271  and  _273
REMARK  106  A    between atoms: _273  and  _274
REMARK  107  A    between atoms: _273  and  _276
REMARK  108  A    between atoms: _276  and  _277
REMARK  109  A    between atoms: _279  and  _281
REMARK  110  A    between atoms: _281  and  _282
REMARK  111  A    between atoms: _281  and  _284
REMARK  112  A    between atoms: _284  and  _285
REMARK  113  A    between atoms: _290  and  _291
REMARK  114  A    between atoms: _293  and  _295
REMARK  115  A    between atoms: _295  and  _296
REMARK  116  A    between atoms: _295  and  _298
REMARK  117  A    between atoms: _298  and  _299
REMARK  118  A    between atoms: _303  and  _304
REMARK  119  A    between atoms: _309  and  _311
REMARK  120  A    between atoms: _311  and  _312
REMARK  121  A    between atoms: _311  and  _314
REMARK  122  A    between atoms: _314  and  _315
REMARK  123  A    between atoms: _317  and  _319
REMARK  124  A    between atoms: _319  and  _320
REMARK  125  A    between atoms: _319  and  _322
REMARK  126  A    between atoms: _322  and  _323
REMARK  127  A    between atoms: _323  and  _324
REMARK  128  A    between atoms: _329  and  _331
REMARK  129  A    between atoms: _331  and  _332
REMARK  130  A    between atoms: _331  and  _334
REMARK  131  A    between atoms: _334  and  _335
REMARK  132  A    between atoms: _338  and  _340
REMARK  133  A    between atoms: _340  and  _341
REMARK  134  A    between atoms: _340  and  _343
REMARK  135  A    between atoms: _343  and  _344
REMARK  136  A    between atoms: _347  and  _349
REMARK  137  A    between atoms: _349  and  _350
REMARK  138  A    between atoms: _349  and  _352
REMARK  139  A    between atoms: _352  and  _353
REMARK  140  A    between atoms: _356  and  _358
REMARK  141  A    between atoms: _358  and  _359
REMARK  142  A    between atoms: _358  and  _361
REMARK  143  A    between atoms: _361  and  _362
REMARK  144  A    between atoms: _365  and  _367
REMARK  145  A    between atoms: _367  and  _368
REMARK  146  A    between atoms: _367  and  _370
REMARK  147  A    between atoms: _370  and  _371
REMARK  148  A    between atoms: _376  and  _378
REMARK  149  A    between atoms: _378  and  _379
REMARK  150  A    between atoms: _382  and  _384
REMARK  151  A    between atoms: _384  and  _385
REMARK  152  A    between atoms: _388  and  _390
REMARK  153  A    between atoms: _390  and  _391
REMARK  154  A    between atoms: _390  and  _393
REMARK  155  A    between atoms: _393  and  _394
REMARK  156  A    between atoms: _399  and  _400
REMARK  157  A    between atoms: _402  and  _404
REMARK  158  A    between atoms: _404  and  _405
REMARK  159  A    between atoms: _404  and  _407
REMARK  160  A    between atoms: _407  and  _408
REMARK  161  A    between atoms: _410  and  _412
REMARK  162  A    between atoms: _412  and  _413
REMARK  163  A    between atoms: _412  and  _415
REMARK  164  A    between atoms: _415  and  _416
REMARK  165  A    between atoms: _419  and  _421
REMARK  166  A    between atoms: _421  and  _422
REMARK  167  A    between atoms: _421  and  _424
REMARK  168  A    between atoms: _427  and  _429
REMARK  169  A    between atoms: _429  and  _430
REMARK  170  A    between atoms: _429  and  _432
REMARK  171  A    between atoms: _432  and  _433
REMARK  172  A    between atoms: _439  and  _441
REMARK  173  A    between atoms: _441  and  _442
REMARK  174  A    between atoms: _441  and  _444
REMARK  175  A    between atoms: _444  and  _445
REMARK  176  A    between atoms: _450  and  _452
REMARK  177  A    between atoms: _452  and  _453
REMARK  178  A    between atoms: _456  and  _458
REMARK  179  A    between atoms: _458  and  _459
REMARK  180  A    between atoms: _458  and  _461
REMARK  181  A    between atoms: _461  and  _462
REMARK  182  A    between atoms: _465  and  _467
REMARK  183  A    between atoms: _467  and  _468
REMARK  184  A    between atoms: _470  and  _472
REMARK  185  A    between atoms: _472  and  _473
REMARK  186  A    between atoms: _475  and  _477
REMARK  187  A    between atoms: _477  and  _478
REMARK  188  A    between atoms: _477  and  _480
REMARK  189  A    between atoms: _480  and  _481
REMARK  190  A    between atoms: _484  and  _486
REMARK  191  A    between atoms: _486  and  _487
REMARK  192  A    between atoms: _489  and  _491
REMARK  193  A    between atoms: _491  and  _492
REMARK  194  A    between atoms: _491  and  _494
REMARK  195  A    between atoms: _494  and  _495
REMARK  196  A    between atoms: _497  and  _499
REMARK  197  A    between atoms: _499  and  _500
REMARK  198  A    between atoms: _499  and  _502
REMARK  199  A    between atoms: _502  and  _503
REMARK                            x       y       z     vdW  Elec       q    Type
REMARK                         _______ _______ _______ _____ _____    ______ ____
ROOT
ATOM      1  C   PHE A   3      13.839  42.811  63.788  0.00  0.00    +0.241 C 
ATOM      2  N   ASN A   4      15.035  42.422  64.313  0.00  0.00    -0.297 N 
ATOM      3  H   ASN A   4      15.130  42.403  65.349  0.00  0.00    +0.150 HD
ATOM      4  O   PHE A   3      13.541  42.725  62.546  0.00  0.00    -0.273 OA
ENDROOT
BRANCH   2   5
ATOM      5  CA  ASN A   4      16.200  42.027  63.507  0.00  0.00    +0.158 C 
BRANCH   5   6
ATOM      6  C   ASN A   4      16.448  40.550  63.689  0.00  0.00    +0.241 C 
ATOM      7  O   ASN A   4      16.199  40.045  64.746  0.00  0.00    -0.273 OA
ATOM      8  N   ALA A   5      16.879  39.872  62.626  0.00  0.00    -0.297 N 
ATOM      9  H   ALA A   5      16.980  40.343  61.704  0.00  0.00    +0.150 HD
BRANCH   8  10
ATOM     10  CA  ALA A   5      17.204  38.473  62.775  0.00  0.00    +0.149 C 
ATOM     11  CB  ALA A   5      15.977  37.528  62.450  0.00  0.00    +0.031 C 
BRANCH  10  12
ATOM     12  C   ALA A   5      18.281  38.173  61.771  0.00  0.00    +0.241 C 
ATOM     13  N   LEU A   6      18.991  37.085  61.998  0.00  0.00    -0.298 N 
ATOM     14  H   LEU A   6      18.806  36.554  62.873  0.00  0.00    +0.150 HD
ATOM     15  O   ALA A   5      18.372  38.845  60.723  0.00  0.00    -0.273 OA
BRANCH  13  16
ATOM     16  CA  LEU A   6      20.013  36.586  61.102  0.00  0.00    +0.137 C 
BRANCH  16  17
ATOM     17  C   LEU A   6      19.506  35.405  60.317  0.00  0.00    +0.227 C 
ATOM     18  O   LEU A   6      18.566  34.744  60.788  0.00  0.00    -0.286 OA
ENDBRANCH  16  17
BRANCH  16  19
ATOM     19  CB  LEU A   6      21.250  36.060  61.916  0.00  0.00    +0.028 C 
BRANCH  19  20
ATOM     20  CG  LEU A   6      22.086  37.161  62.595  0.00  0.00    +0.002 C 
ATOM     21  CD2 LEU A   6      22.847  36.548  63.808  0.00  0.00    +0.000 C 
ATOM     22  CD1 LEU A   6      22.970  37.825  61.579  0.00  0.00    +0.000 C 
ENDBRANCH  19  20
ENDBRANCH  16  19
ENDBRANCH  13  16
ENDBRANCH  10  12
ENDBRANCH   8  10
ENDBRANCH   5   6
BRANCH   5  23
ATOM     23  CB  ASN A   4      17.490  42.764  63.886  0.00  0.00    +0.114 C 
BRANCH  23  24
ATOM     24  CG  ASN A   4      17.384  44.289  63.579  0.00  0.00    +0.222 C 
ATOM     25  ND2 ASN A   4      17.859  45.111  64.499  0.00  0.00    -0.329 N 
ATOM     26 HD21 ASN A   4      18.312  44.729  65.354  0.00  0.00    +0.145 HD
ATOM     27 HD22 ASN A   4      17.780  46.140  64.368  0.00  0.00    +0.145 HD
ATOM     28  OD1 ASN A   4      16.833  44.672  62.537  0.00  0.00    -0.275 OA
ENDBRANCH  23  24
ENDBRANCH   5  23
ENDBRANCH   2   5
BRANCH   1  29
ATOM     29  CA  PHE A   3      12.833  43.387  64.747  0.00  0.00    +0.153 C 
BRANCH  29  32
ATOM     30  C   VAL A   2      12.700  45.802  65.147  0.00  0.00    +0.241 C 
ATOM     31  O   VAL A   2      13.033  45.734  66.342  0.00  0.00    -0.273 OA
ATOM     32  N   PHE A   3      12.533  44.759  64.352  0.00  0.00    -0.297 N 
ATOM     33  H   PHE A   3      12.168  44.926  63.393  0.00  0.00    +0.150 HD
BRANCH  30  34
ATOM     34  CA  VAL A   2      12.427  47.168  64.471  0.00  0.00    +0.148 C 
BRANCH  34  36
ATOM     35  C   ASP A   1      11.265  49.185  65.303  0.00  0.00    +0.239 C 
ATOM     36  N   VAL A   2      11.996  48.118  65.546  0.00  0.00    -0.297 N 
ATOM     37  H   VAL A   2      12.287  47.926  66.526  0.00  0.00    +0.150 HD
ATOM     38  O   ASP A   1      10.829  49.447  64.185  0.00  0.00    -0.274 OA
BRANCH  35  39
ATOM     39  CA  ASP A   1      11.041  50.100  66.484  0.00  0.00    +0.156 C 
BRANCH  39  40
ATOM     40  N   ASP A   1      11.151  49.403  67.761  0.00  0.00    -0.238 NA
ATOM     41  H   ASP A   1      12.065  49.446  68.256  0.00  0.00    +0.142 HD
ENDBRANCH  39  40
BRANCH  39  42
ATOM     42  CB  ASP A   1      12.047  51.264  66.440  0.00  0.00    +0.140 C 
BRANCH  42  43
ATOM     43  CG  ASP A   1      11.775  52.373  67.500  0.00  0.00    +0.367 C 
ATOM     44  OD2 ASP A   1      12.782  52.954  68.047  0.00  0.00    -0.246 OA
ATOM     45  OD1 ASP A   1      10.588  52.667  67.764  0.00  0.00    -0.246 OA
ENDBRANCH  42  43
ENDBRANCH  39  42
ENDBRANCH  35  39
ENDBRANCH  34  36
BRANCH  34  46
ATOM     46  CB  VAL A   2      13.670  47.723  63.726  0.00  0.00    +0.027 C 
ATOM     47  CG2 VAL A   2      14.893  47.704  64.663  0.00  0.00    +0.002 C 
ATOM     48  CG1 VAL A   2      13.942  47.000  62.298  0.00  0.00    +0.002 C 
ENDBRANCH  34  46
ENDBRANCH  30  34
ENDBRANCH  29  32
BRANCH  29  49
ATOM     49  CB  PHE A   3      11.556  42.604  64.788  0.00  0.00    +0.055 C 
BRANCH  49  50
ATOM     50  CG  PHE A   3      11.751  41.156  65.203  0.00  0.00    -0.020 A 
ATOM     51  CD2 PHE A   3      11.621  40.821  66.525  0.00  0.00    -0.004 A 
ATOM     52  CE2 PHE A   3      11.828  39.452  66.949  0.00  0.00    -0.000 A 
ATOM     53  CZ  PHE A   3      12.124  38.468  66.054  0.00  0.00    -0.000 A 
ATOM     54  CE1 PHE A   3      12.291  38.791  64.699  0.00  0.00    -0.000 A 
ATOM     55  CD1 PHE A   3      12.091  40.194  64.286  0.00  0.00    -0.004 A 
ENDBRANCH  49  50
ENDBRANCH  29  49
ENDBRANCH   1  29
TORSDOF 21
REMARK  Name = ../refined-set-2016/4a95/4a95_pocket.pdb
REMARK  199 active torsions:
REMARK  status: ('A' for Active; 'I' for Inactive)
REMARK    1  A    between atoms: _1  and  _3
REMARK    2  A    between atoms: _3  and  _4
REMARK    3  A    between atoms: _3  and  _6
REMARK    4  A    between atoms: _6  and  _7
REMARK    5  A    between atoms: _12  and  _13
REMARK    6  A    between atoms: _15  and  _17
REMARK    7  A    between atoms: _17  and  _18
REMARK    8  A    between atoms: _17  and  _20
REMARK    9  A    between atoms: _23  and  _25
REMARK   10  A    between atoms: _25  and  _26
REMARK   11  A    between atoms: _25  and  _28
REMARK   12  A    between atoms: _28  and  _29
REMARK   13  A    between atoms: _29  and  _30
REMARK   14  A    between atoms: _33  and  _35
REMARK   15  A    between atoms: _35  and  _36
REMARK   16  A    between atoms: _35  and  _38
REMARK   17  A    between atoms: _38  and  _39
REMARK   18  A    between atoms: _42  and  _44
REMARK   19  A    between atoms: _44  and  _45
REMARK   20  A    between atoms: _44  and  _47
REMARK   21  A    between atoms: _47  and  _48
REMARK   22  A    between atoms: _51  and  _53
REMARK   23  A    between atoms: _53  and  _54
REMARK   24  A    between atoms: _53  and  _56
REMARK   25  A    between atoms: _56  and  _57
REMARK   26  A    between atoms: _60  and  _62
REMARK   27  A    between atoms: _62  and  _63
REMARK   28  A    between atoms: _62  and  _65
REMARK   29  A    between atoms: _65  and  _66
REMARK   30  A    between atoms: _71  and  _73
REMARK   31  A    between atoms: _73  and  _74
REMARK   32  A    between atoms: _73  and  _76
REMARK   33  A    between atoms: _76  and  _77
REMARK   34  A    between atoms: _80  and  _82
REMARK   35  A    between atoms: _82  and  _83
REMARK   36  A    between atoms: _82  and  _85
REMARK   37  A    between atoms: _85  and  _86
REMARK   38  A    between atoms: _92  and  _94
REMARK   39  A    between atoms: _94  and  _95
REMARK   40  A    between atoms: _94  and  _97
REMARK   41  A    between atoms: _97  and  _98
REMARK   42  A    between atoms: _98  and  _99
REMARK   43  A    between atoms: _99  and  _100
REMARK   44  A    between atoms: _109  and  _111
REMARK   45  A    between atoms: _111  and  _112
REMARK   46  A    between atoms: _111  and  _114
REMARK   47  A    between atoms: _114  and  _115
REMARK   48  A    between atoms: _121  and  _123
REMARK   49  A    between atoms: _123  and  _124
REMARK   50  A    between atoms: _123  and  _126
REMARK   51  A    between atoms: _126  and  _127
REMARK   52  A    between atoms: _132  and  _134
REMARK   53  A    between atoms: _134  and  _135
REMARK   54  A    between atoms: _138  and  _140
REMARK   55  A    between atoms: _140  and  _141
REMARK   56  A    between atoms: _143  and  _145
REMARK   57  A    between atoms: _145  and  _146
REMARK   58  A    between atoms: _145  and  _148
REMARK   59  A    between atoms: _151  and  _153
REMARK   60  A    between atoms: _153  and  _154
REMARK   61  A    between atoms: _153  and  _156
REMARK   62  A    between atoms: _156  and  _157
REMARK   63  A    between atoms: _157  and  _158
REMARK   64  A    between atoms: _158  and  _159
REMARK   65  A    between atoms: _168  and  _170
REMARK   66  A    between atoms: _170  and  _171
REMARK   67  A    between atoms: _170  and  _173
REMARK   68  A    between atoms: _173  and  _174
REMARK   69  A    between atoms: _179  and  _180
REMARK   70  A    between atoms: _182  and  _184
REMARK   71  A    between atoms: _184  and  _185
REMARK   72  A    between atoms: _184  and  _187
REMARK   73  A    between atoms: _187  and  _188
REMARK   74  A    between atoms: _193  and  _194
REMARK   75  A    between atoms: _196  and  _198
REMARK   76  A    between atoms: _198  and  _199
REMARK   77  A    between atoms: _198  and  _201
REMARK   78  A    between atoms: _201  and  _202
REMARK   79  A    between atoms: _207  and  _209
REMARK   80  A    between atoms: _209  and  _210
REMARK   81  A    between atoms: _209  and  _212
REMARK   82  A    between atoms: _212  and  _213
REMARK   83  A    between atoms: _213  and  _214
REMARK   84  A    between atoms: _214  and  _215
REMARK   85  A    between atoms: _224  and  _226
REMARK   86  A    between atoms: _226  and  _227
REMARK   87  A    between atoms: _226  and  _229
REMARK   88  A    between atoms: _229  and  _230
REMARK   89  A    between atoms: _232  and  _234
REMARK   90  A    between atoms: _234  and  _235
REMARK   91  A    between atoms: _234  and  _237
REMARK   92  A    between atoms: _237  and  _238
REMARK   93  A    between atoms: _241  and  _243
REMARK   94  A    between atoms: _243  and  _244
REMARK   95  A    between atoms: _243  and  _246
REMARK   96  A    between atoms: _246  and  _247
REMARK   97  A    between atoms: _250  and  _252
REMARK   98  A    between atoms: _252  and  _253
REMARK   99  A    between atoms: _252  and  _255
REMARK  100  A    between atoms: _255  and  _256
REMARK  101  A    between atoms: _259  and  _261
REMARK  102  A    between atoms: _261  and  _262
REMARK  103  A    between atoms: _261  and  _264
REMARK  104  A    between atoms: _264  and  _265
REMARK  105  A    between atoms: _271  and  _273
REMARK  106  A    between atoms: _273  and  _274
REMARK  107  A    between atoms: _273  and  _276
REMARK  108  A    between atoms: _276  and  _277
REMARK  109  A    between atoms: _279  and  _281
REMARK  110  A    between atoms: _281  and  _282
REMARK  111  A    between atoms: _281  and  _284
REMARK  112  A    between atoms: _284  and  _285
REMARK  113  A    between atoms: _290  and  _291
REMARK  114  A    between atoms: _293  and  _295
REMARK  115  A    between atoms: _295  and  _296
REMARK  116  A    between atoms: _295  and  _298
REMARK  117  A    between atoms: _298  and  _299
REMARK  118  A    between atoms: _303  and  _304
REMARK  119  A    between atoms: _309  and  _311
REMARK  120  A    between atoms: _311  and  _312
REMARK  121  A    between atoms: _311  and  _314
REMARK  122  A    between atoms: _314  and  _315
REMARK  123  A    between atoms: _317  and  _319
REMARK  124  A    between atoms: _319  and  _320
REMARK  125  A    between atoms: _319  and  _322
REMARK  126  A    between atoms: _322  and  _323
REMARK  127  A    between atoms: _323  and  _324
REMARK  128  A    between atoms: _329  and  _331
REMARK  129  A    between atoms: _331  and  _332
REMARK  130  A    between atoms: _331  and  _334
REMARK  131  A    between atoms: _334  and  _335
REMARK  132  A    between atoms: _338  and  _340
REMARK  133  A    between atoms: _340  and  _341
REMARK  134  A    between atoms: _340  and  _343
REMARK  135  A    between atoms: _343  and  _344
REMARK  136  A    between atoms: _347  and  _349
REMARK  137  A    between atoms: _349  and  _350
REMARK  138  A    between atoms: _349  and  _352
REMARK  139  A    between atoms: _352  and  _353
REMARK  140  A    between atoms: _356  and  _358
REMARK  141  A    between atoms: _358  and  _359
REMARK  142  A    between atoms: _358  and  _361
REMARK  143  A    between atoms: _361  and  _362
REMARK  144  A    between atoms: _365  and  _367
REMARK  145  A    between atoms: _367  and  _368
REMARK  146  A    between atoms: _367  and  _370
REMARK  147  A    between atoms: _370  and  _371
REMARK  148  A    between atoms: _376  and  _378
REMARK  149  A    between atoms: _378  and  _379
REMARK  150  A    between atoms: _382  and  _384
REMARK  151  A    between atoms: _384  and  _385
REMARK  152  A    between atoms: _388  and  _390
REMARK  153  A    between atoms: _390  and  _391
REMARK  154  A    between atoms: _390  and  _393
REMARK  155  A    between atoms: _393  and  _394
REMARK  156  A    between atoms: _399  and  _400
REMARK  157  A    between atoms: _402  and  _404
REMARK  158  A    between atoms: _404  and  _405
REMARK  159  A    between atoms: _404  and  _407
REMARK  160  A    between atoms: _407  and  _408
REMARK  161  A    between atoms: _410  and  _412
REMARK  162  A    between atoms: _412  and  _413
REMARK  163  A    between atoms: _412  and  _415
REMARK  164  A    between atoms: _415  and  _416
REMARK  165  A    between atoms: _419  and  _421
REMARK  166  A    between atoms: _421  and  _422
REMARK  167  A    between atoms: _421  and  _424
REMARK  168  A    between atoms: _427  and  _429
REMARK  169  A    between atoms: _429  and  _430
REMARK  170  A    between atoms: _429  and  _432
REMARK  171  A    between atoms: _432  and  _433
REMARK  172  A    between atoms: _439  and  _441
REMARK  173  A    between atoms: _441  and  _442
REMARK  174  A    between atoms: _441  and  _444
REMARK  175  A    between atoms: _444  and  _445
REMARK  176  A    between atoms: _450  and  _452
REMARK  177  A    between atoms: _452  and  _453
REMARK  178  A    between atoms: _456  and  _458
REMARK  179  A    between atoms: _458  and  _459
REMARK  180  A    between atoms: _458  and  _461
REMARK  181  A    between atoms: _461  and  _462
REMARK  182  A    between atoms: _465  and  _467
REMARK  183  A    between atoms: _467  and  _468
REMARK  184  A    between atoms: _470  and  _472
REMARK  185  A    between atoms: _472  and  _473
REMARK  186  A    between atoms: _475  and  _477
REMARK  187  A    between atoms: _477  and  _478
REMARK  188  A    between atoms: _477  and  _480
REMARK  189  A    between atoms: _480  and  _481
REMARK  190  A    between atoms: _484  and  _486
REMARK  191  A    between atoms: _486  and  _487
REMARK  192  A    between atoms: _489  and  _491
REMARK  193  A    between atoms: _491  and  _492
REMARK  194  A    between atoms: _491  and  _494
REMARK  195  A    between atoms: _494  and  _495
REMARK  196  A    between atoms: _497  and  _499
REMARK  197  A    between atoms: _499  and  _500
REMARK  198  A    between atoms: _499  and  _502
REMARK  199  A    between atoms: _502  and  _503
REMARK                            x       y       z     vdW  Elec       q    Type
REMARK                         _______ _______ _______ _____ _____    ______ ____
ROOT
ATOM      1  CA  GLY A   1      14.235  43.592  54.182  0.00  0.00    +0.156 C 
ENDROOT
BRANCH   1   2
ATOM      2  N   GLY A   1      13.272  43.133  55.248  0.00  0.00    -0.238 NA
ATOM      3  H   GLY A   1      13.259  43.633  56.160  0.00  0.00    +0.142 HD
ENDBRANCH   1   2
BRANCH   1   4
ATOM      4  C   GLY A   1      15.649  43.104  54.494  0.00  0.00    +0.226 C 
ATOM      5  O   GLY A   1      16.018  43.019  55.662  0.00  0.00    -0.287 OA
ENDBRANCH   1   4
TORSDOF 2
REMARK  Name = ../refined-set-2016/4a95/4a95_pocket.pdb
REMARK  199 active torsions:
REMARK  status: ('A' for Active; 'I' for Inactive)
REMARK    1  A    between atoms: _1  and  _3
REMARK    2  A    between atoms: _3  and  _4
REMARK    3  A    between atoms: _3  and  _6
REMARK    4  A    between atoms: _6  and  _7
REMARK    5  A    between atoms: _12  and  _13
REMARK    6  A    between atoms: _15  and  _17
REMARK    7  A    between atoms: _17  and  _18
REMARK    8  A    between atoms: _17  and  _20
REMARK    9  A    between atoms: _23  and  _25
REMARK   10  A    between atoms: _25  and  _26
REMARK   11  A    between atoms: _25  and  _28
REMARK   12  A    between atoms: _28  and  _29
REMARK   13  A    between atoms: _29  and  _30
REMARK   14  A    between atoms: _33  and  _35
REMARK   15  A    between atoms: _35  and  _36
REMARK   16  A    between atoms: _35  and  _38
REMARK   17  A    between atoms: _38  and  _39
REMARK   18  A    between atoms: _42  and  _44
REMARK   19  A    between atoms: _44  and  _45
REMARK   20  A    between atoms: _44  and  _47
REMARK   21  A    between atoms: _47  and  _48
REMARK   22  A    between atoms: _51  and  _53
REMARK   23  A    between atoms: _53  and  _54
REMARK   24  A    between atoms: _53  and  _56
REMARK   25  A    between atoms: _56  and  _57
REMARK   26  A    between atoms: _60  and  _62
REMARK   27  A    between atoms: _62  and  _63
REMARK   28  A    between atoms: _62  and  _65
REMARK   29  A    between atoms: _65  and  _66
REMARK   30  A    between atoms: _71  and  _73
REMARK   31  A    between atoms: _73  and  _74
REMARK   32  A    between atoms: _73  and  _76
REMARK   33  A    between atoms: _76  and  _77
REMARK   34  A    between atoms: _80  and  _82
REMARK   35  A    between atoms: _82  and  _83
REMARK   36  A    between atoms: _82  and  _85
REMARK   37  A    between atoms: _85  and  _86
REMARK   38  A    between atoms: _92  and  _94
REMARK   39  A    between atoms: _94  and  _95
REMARK   40  A    between atoms: _94  and  _97
REMARK   41  A    between atoms: _97  and  _98
REMARK   42  A    between atoms: _98  and  _99
REMARK   43  A    between atoms: _99  and  _100
REMARK   44  A    between atoms: _109  and  _111
REMARK   45  A    between atoms: _111  and  _112
REMARK   46  A    between atoms: _111  and  _114
REMARK   47  A    between atoms: _114  and  _115
REMARK   48  A    between atoms: _121  and  _123
REMARK   49  A    between atoms: _123  and  _124
REMARK   50  A    between atoms: _123  and  _126
REMARK   51  A    between atoms: _126  and  _127
REMARK   52  A    between atoms: _132  and  _134
REMARK   53  A    between atoms: _134  and  _135
REMARK   54  A    between atoms: _138  and  _140
REMARK   55  A    between atoms: _140  and  _141
REMARK   56  A    between atoms: _143  and  _145
REMARK   57  A    between atoms: _145  and  _146
REMARK   58  A    between atoms: _145  and  _148
REMARK   59  A    between atoms: _151  and  _153
REMARK   60  A    between atoms: _153  and  _154
REMARK   61  A    between atoms: _153  and  _156
REMARK   62  A    between atoms: _156  and  _157
REMARK   63  A    between atoms: _157  and  _158
REMARK   64  A    between atoms: _158  and  _159
REMARK   65  A    between atoms: _168  and  _170
REMARK   66  A    between atoms: _170  and  _171
REMARK   67  A    between atoms: _170  and  _173
REMARK   68  A    between atoms: _173  and  _174
REMARK   69  A    between atoms: _179  and  _180
REMARK   70  A    between atoms: _182  and  _184
REMARK   71  A    between atoms: _184  and  _185
REMARK   72  A    between atoms: _184  and  _187
REMARK   73  A    between atoms: _187  and  _188
REMARK   74  A    between atoms: _193  and  _194
REMARK   75  A    between atoms: _196  and  _198
REMARK   76  A    between atoms: _198  and  _199
REMARK   77  A    between atoms: _198  and  _201
REMARK   78  A    between atoms: _201  and  _202
REMARK   79  A    between atoms: _207  and  _209
REMARK   80  A    between atoms: _209  and  _210
REMARK   81  A    between atoms: _209  and  _212
REMARK   82  A    between atoms: _212  and  _213
REMARK   83  A    between atoms: _213  and  _214
REMARK   84  A    between atoms: _214  and  _215
REMARK   85  A    between atoms: _224  and  _226
REMARK   86  A    between atoms: _226  and  _227
REMARK   87  A    between atoms: _226  and  _229
REMARK   88  A    between atoms: _229  and  _230
REMARK   89  A    between atoms: _232  and  _234
REMARK   90  A    between atoms: _234  and  _235
REMARK   91  A    between atoms: _234  and  _237
REMARK   92  A    between atoms: _237  and  _238
REMARK   93  A    between atoms: _241  and  _243
REMARK   94  A    between atoms: _243  and  _244
REMARK   95  A    between atoms: _243  and  _246
REMARK   96  A    between atoms: _246  and  _247
REMARK   97  A    between atoms: _250  and  _252
REMARK   98  A    between atoms: _252  and  _253
REMARK   99  A    between atoms: _252  and  _255
REMARK  100  A    between atoms: _255  and  _256
REMARK  101  A    between atoms: _259  and  _261
REMARK  102  A    between atoms: _261  and  _262
REMARK  103  A    between atoms: _261  and  _264
REMARK  104  A    between atoms: _264  and  _265
REMARK  105  A    between atoms: _271  and  _273
REMARK  106  A    between atoms: _273  and  _274
REMARK  107  A    between atoms: _273  and  _276
REMARK  108  A    between atoms: _276  and  _277
REMARK  109  A    between atoms: _279  and  _281
REMARK  110  A    between atoms: _281  and  _282
REMARK  111  A    between atoms: _281  and  _284
REMARK  112  A    between atoms: _284  and  _285
REMARK  113  A    between atoms: _290  and  _291
REMARK  114  A    between atoms: _293  and  _295
REMARK  115  A    between atoms: _295  and  _296
REMARK  116  A    between atoms: _295  and  _298
REMARK  117  A    between atoms: _298  and  _299
REMARK  118  A    between atoms: _303  and  _304
REMARK  119  A    between atoms: _309  and  _311
REMARK  120  A    between atoms: _311  and  _312
REMARK  121  A    between atoms: _311  and  _314
REMARK  122  A    between atoms: _314  and  _315
REMARK  123  A    between atoms: _317  and  _319
REMARK  124  A    between atoms: _319  and  _320
REMARK  125  A    between atoms: _319  and  _322
REMARK  126  A    between atoms: _322  and  _323
REMARK  127  A    between atoms: _323  and  _324
REMARK  128  A    between atoms: _329  and  _331
REMARK  129  A    between atoms: _331  and  _332
REMARK  130  A    between atoms: _331  and  _334
REMARK  131  A    between atoms: _334  and  _335
REMARK  132  A    between atoms: _338  and  _340
REMARK  133  A    between atoms: _340  and  _341
REMARK  134  A    between atoms: _340  and  _343
REMARK  135  A    between atoms: _343  and  _344
REMARK  136  A    between atoms: _347  and  _349
REMARK  137  A    between atoms: _349  and  _350
REMARK  138  A    between atoms: _349  and  _352
REMARK  139  A    between atoms: _352  and  _353
REMARK  140  A    between atoms: _356  and  _358
REMARK  141  A    between atoms: _358  and  _359
REMARK  142  A    between atoms: _358  and  _361
REMARK  143  A    between atoms: _361  and  _362
REMARK  144  A    between atoms: _365  and  _367
REMARK  145  A    between atoms: _367  and  _368
REMARK  146  A    between atoms: _367  and  _370
REMARK  147  A    between atoms: _370  and  _371
REMARK  148  A    between atoms: _376  and  _378
REMARK  149  A    between atoms: _378  and  _379
REMARK  150  A    between atoms: _382  and  _384
REMARK  151  A    between atoms: _384  and  _385
REMARK  152  A    between atoms: _388  and  _390
REMARK  153  A    between atoms: _390  and  _391
REMARK  154  A    between atoms: _390  and  _393
REMARK  155  A    between atoms: _393  and  _394
REMARK  156  A    between atoms: _399  and  _400
REMARK  157  A    between atoms: _402  and  _404
REMARK  158  A    between atoms: _404  and  _405
REMARK  159  A    between atoms: _404  and  _407
REMARK  160  A    between atoms: _407  and  _408
REMARK  161  A    between atoms: _410  and  _412
REMARK  162  A    between atoms: _412  and  _413
REMARK  163  A    between atoms: _412  and  _415
REMARK  164  A    between atoms: _415  and  _416
REMARK  165  A    between atoms: _419  and  _421
REMARK  166  A    between atoms: _421  and  _422
REMARK  167  A    between atoms: _421  and  _424
REMARK  168  A    between atoms: _427  and  _429
REMARK  169  A    between atoms: _429  and  _430
REMARK  170  A    between atoms: _429  and  _432
REMARK  171  A    between atoms: _432  and  _433
REMARK  172  A    between atoms: _439  and  _441
REMARK  173  A    between atoms: _441  and  _442
REMARK  174  A    between atoms: _441  and  _444
REMARK  175  A    between atoms: _444  and  _445
REMARK  176  A    between atoms: _450  and  _452
REMARK  177  A    between atoms: _452  and  _453
REMARK  178  A    between atoms: _456  and  _458
REMARK  179  A    between atoms: _458  and  _459
REMARK  180  A    between atoms: _458  and  _461
REMARK  181  A    between atoms: _461  and  _462
REMARK  182  A    between atoms: _465  and  _467
REMARK  183  A    between atoms: _467  and  _468
REMARK  184  A    between atoms: _470  and  _472
REMARK  185  A    between atoms: _472  and  _473
REMARK  186  A    between atoms: _475  and  _477
REMARK  187  A    between atoms: _477  and  _478
REMARK  188  A    between atoms: _477  and  _480
REMARK  189  A    between atoms: _480  and  _481
REMARK  190  A    between atoms: _484  and  _486
REMARK  191  A    between atoms: _486  and  _487
REMARK  192  A    between atoms: _489  and  _491
REMARK  193  A    between atoms: _491  and  _492
REMARK  194  A    between atoms: _491  and  _494
REMARK  195  A    between atoms: _494  and  _495
REMARK  196  A    between atoms: _497  and  _499
REMARK  197  A    between atoms: _499  and  _500
REMARK  198  A    between atoms: _499  and  _502
REMARK  199  A    between atoms: _502  and  _503
REMARK                            x       y       z     vdW  Elec       q    Type
REMARK                         _______ _______ _______ _____ _____    ______ ____
ROOT
ATOM      1  C   GLY A   3      25.702  42.283  56.604  0.00  0.00    +0.243 C 
ATOM      2  N   SER A   4      26.775  41.679  57.110  0.00  0.00    -0.295 N 
ATOM      3  H   SER A   4      27.709  42.136  57.103  0.00  0.00    +0.150 HD
ATOM      4  O   GLY A   3      24.520  41.797  56.610  0.00  0.00    -0.273 OA
ENDROOT
BRANCH   2   5
ATOM      5  CA  SER A   4      26.587  40.373  57.664  0.00  0.00    +0.178 C 
BRANCH   5   6
ATOM      6  C   SER A   4      27.435  40.166  58.873  0.00  0.00    +0.243 C 
ATOM      7  N   LEU A   5      27.166  39.068  59.565  0.00  0.00    -0.298 N 
ATOM      8  H   LEU A   5      26.391  38.451  59.249  0.00  0.00    +0.150 HD
ATOM      9  O   SER A   4      28.302  40.985  59.196  0.00  0.00    -0.273 OA
BRANCH   7  10
ATOM     10  CA  LEU A   5      27.909  38.705  60.735  0.00  0.00    +0.137 C 
BRANCH  10  11
ATOM     11  C   LEU A   5      28.598  37.408  60.452  0.00  0.00    +0.227 C 
ATOM     12  O   LEU A   5      27.941  36.395  60.107  0.00  0.00    -0.286 OA
ENDBRANCH  10  11
BRANCH  10  13
ATOM     13  CB  LEU A   5      26.963  38.529  61.937  0.00  0.00    +0.028 C 
BRANCH  13  14
ATOM     14  CG  LEU A   5      27.633  38.451  63.306  0.00  0.00    +0.002 C 
ATOM     15  CD2 LEU A   5      26.665  37.916  64.399  0.00  0.00    +0.000 C 
ATOM     16  CD1 LEU A   5      28.316  39.728  63.755  0.00  0.00    +0.000 C 
ENDBRANCH  13  14
ENDBRANCH  10  13
ENDBRANCH   7  10
ENDBRANCH   5   6
BRANCH   5  17
ATOM     17  CB  SER A   4      26.856  39.325  56.607  0.00  0.00    +0.166 C 
BRANCH  17  18
ATOM     18  OG  SER A   4      28.246  39.251  56.321  0.00  0.00    -0.380 OA
ATOM     19  H   SER A   4      28.403  38.561  55.628  0.00  0.00    +0.211 HD
ENDBRANCH  17  18
ENDBRANCH   5  17
ENDBRANCH   2   5
BRANCH   1  20
ATOM     20  CA  GLY A   3      25.991  43.637  56.054  0.00  0.00    +0.176 C 
BRANCH  20  22
ATOM     21  C   ASP A   2      24.756  45.008  54.575  0.00  0.00    +0.241 C 
ATOM     22  N   GLY A   3      24.800  44.424  55.764  0.00  0.00    -0.295 N 
ATOM     23  H   GLY A   3      24.027  44.522  56.452  0.00  0.00    +0.150 HD
ATOM     24  O   ASP A   2      25.617  44.807  53.709  0.00  0.00    -0.273 OA
BRANCH  21  25
ATOM     25  CA  ASP A   2      23.580  45.934  54.292  0.00  0.00    +0.160 C 
BRANCH  25  27
ATOM     26  C   GLY A   1      21.530  44.711  54.595  0.00  0.00    +0.240 C 
ATOM     27  N   ASP A   2      22.437  45.559  55.058  0.00  0.00    -0.297 N 
ATOM     28  H   ASP A   2      22.312  45.963  56.008  0.00  0.00    +0.150 HD
ATOM     29  O   GLY A   1      21.666  44.087  53.539  0.00  0.00    -0.274 OA
BRANCH  26  30
ATOM     30  CA  GLY A   1      20.309  44.512  55.492  0.00  0.00    +0.169 C 
BRANCH  30  31
ATOM     31  N   GLY A   1      19.497  43.420  54.974  0.00  0.00    -0.236 NA
ATOM     32  H   GLY A   1      19.575  42.479  55.410  0.00  0.00    +0.142 HD
ENDBRANCH  30  31
ENDBRANCH  26  30
ENDBRANCH  25  27
BRANCH  25  33
ATOM     33  CB  ASP A   2      23.912  47.410  54.611  0.00  0.00    +0.143 C 
BRANCH  33  34
ATOM     34  CG  ASP A   2      22.971  48.374  53.884  0.00  0.00    +0.367 C 
ATOM     35  OD2 ASP A   2      22.492  49.344  54.514  0.00  0.00    -0.246 OA
ATOM     36  OD1 ASP A   2      22.704  48.134  52.682  0.00  0.00    -0.246 OA
ENDBRANCH  33  34
ENDBRANCH  25  33
ENDBRANCH  21  25
ENDBRANCH  20  22
ENDBRANCH   1  20
TORSDOF 16
REMARK  Name = ../refined-set-2016/4a95/4a95_pocket.pdb
REMARK  199 active torsions:
REMARK  status: ('A' for Active; 'I' for Inactive)
REMARK    1  A    between atoms: _1  and  _3
REMARK    2  A    between atoms: _3  and  _4
REMARK    3  A    between atoms: _3  and  _6
REMARK    4  A    between atoms: _6  and  _7
REMARK    5  A    between atoms: _12  and  _13
REMARK    6  A    between atoms: _15  and  _17
REMARK    7  A    between atoms: _17  and  _18
REMARK    8  A    between atoms: _17  and  _20
REMARK    9  A    between atoms: _23  and  _25
REMARK   10  A    between atoms: _25  and  _26
REMARK   11  A    between atoms: _25  and  _28
REMARK   12  A    between atoms: _28  and  _29
REMARK   13  A    between atoms: _29  and  _30
REMARK   14  A    between atoms: _33  and  _35
REMARK   15  A    between atoms: _35  and  _36
REMARK   16  A    between atoms: _35  and  _38
REMARK   17  A    between atoms: _38  and  _39
REMARK   18  A    between atoms: _42  and  _44
REMARK   19  A    between atoms: _44  and  _45
REMARK   20  A    between atoms: _44  and  _47
REMARK   21  A    between atoms: _47  and  _48
REMARK   22  A    between atoms: _51  and  _53
REMARK   23  A    between atoms: _53  and  _54
REMARK   24  A    between atoms: _53  and  _56
REMARK   25  A    between atoms: _56  and  _57
REMARK   26  A    between atoms: _60  and  _62
REMARK   27  A    between atoms: _62  and  _63
REMARK   28  A    between atoms: _62  and  _65
REMARK   29  A    between atoms: _65  and  _66
REMARK   30  A    between atoms: _71  and  _73
REMARK   31  A    between atoms: _73  and  _74
REMARK   32  A    between atoms: _73  and  _76
REMARK   33  A    between atoms: _76  and  _77
REMARK   34  A    between atoms: _80  and  _82
REMARK   35  A    between atoms: _82  and  _83
REMARK   36  A    between atoms: _82  and  _85
REMARK   37  A    between atoms: _85  and  _86
REMARK   38  A    between atoms: _92  and  _94
REMARK   39  A    between atoms: _94  and  _95
REMARK   40  A    between atoms: _94  and  _97
REMARK   41  A    between atoms: _97  and  _98
REMARK   42  A    between atoms: _98  and  _99
REMARK   43  A    between atoms: _99  and  _100
REMARK   44  A    between atoms: _109  and  _111
REMARK   45  A    between atoms: _111  and  _112
REMARK   46  A    between atoms: _111  and  _114
REMARK   47  A    between atoms: _114  and  _115
REMARK   48  A    between atoms: _121  and  _123
REMARK   49  A    between atoms: _123  and  _124
REMARK   50  A    between atoms: _123  and  _126
REMARK   51  A    between atoms: _126  and  _127
REMARK   52  A    between atoms: _132  and  _134
REMARK   53  A    between atoms: _134  and  _135
REMARK   54  A    between atoms: _138  and  _140
REMARK   55  A    between atoms: _140  and  _141
REMARK   56  A    between atoms: _143  and  _145
REMARK   57  A    between atoms: _145  and  _146
REMARK   58  A    between atoms: _145  and  _148
REMARK   59  A    between atoms: _151  and  _153
REMARK   60  A    between atoms: _153  and  _154
REMARK   61  A    between atoms: _153  and  _156
REMARK   62  A    between atoms: _156  and  _157
REMARK   63  A    between atoms: _157  and  _158
REMARK   64  A    between atoms: _158  and  _159
REMARK   65  A    between atoms: _168  and  _170
REMARK   66  A    between atoms: _170  and  _171
REMARK   67  A    between atoms: _170  and  _173
REMARK   68  A    between atoms: _173  and  _174
REMARK   69  A    between atoms: _179  and  _180
REMARK   70  A    between atoms: _182  and  _184
REMARK   71  A    between atoms: _184  and  _185
REMARK   72  A    between atoms: _184  and  _187
REMARK   73  A    between atoms: _187  and  _188
REMARK   74  A    between atoms: _193  and  _194
REMARK   75  A    between atoms: _196  and  _198
REMARK   76  A    between atoms: _198  and  _199
REMARK   77  A    between atoms: _198  and  _201
REMARK   78  A    between atoms: _201  and  _202
REMARK   79  A    between atoms: _207  and  _209
REMARK   80  A    between atoms: _209  and  _210
REMARK   81  A    between atoms: _209  and  _212
REMARK   82  A    between atoms: _212  and  _213
REMARK   83  A    between atoms: _213  and  _214
REMARK   84  A    between atoms: _214  and  _215
REMARK   85  A    between atoms: _224  and  _226
REMARK   86  A    between atoms: _226  and  _227
REMARK   87  A    between atoms: _226  and  _229
REMARK   88  A    between atoms: _229  and  _230
REMARK   89  A    between atoms: _232  and  _234
REMARK   90  A    between atoms: _234  and  _235
REMARK   91  A    between atoms: _234  and  _237
REMARK   92  A    between atoms: _237  and  _238
REMARK   93  A    between atoms: _241  and  _243
REMARK   94  A    between atoms: _243  and  _244
REMARK   95  A    between atoms: _243  and  _246
REMARK   96  A    between atoms: _246  and  _247
REMARK   97  A    between atoms: _250  and  _252
REMARK   98  A    between atoms: _252  and  _253
REMARK   99  A    between atoms: _252  and  _255
REMARK  100  A    between atoms: _255  and  _256
REMARK  101  A    between atoms: _259  and  _261
REMARK  102  A    between atoms: _261  and  _262
REMARK  103  A    between atoms: _261  and  _264
REMARK  104  A    between atoms: _264  and  _265
REMARK  105  A    between atoms: _271  and  _273
REMARK  106  A    between atoms: _273  and  _274
REMARK  107  A    between atoms: _273  and  _276
REMARK  108  A    between atoms: _276  and  _277
REMARK  109  A    between atoms: _279  and  _281
REMARK  110  A    between atoms: _281  and  _282
REMARK  111  A    between atoms: _281  and  _284
REMARK  112  A    between atoms: _284  and  _285
REMARK  113  A    between atoms: _290  and  _291
REMARK  114  A    between atoms: _293  and  _295
REMARK  115  A    between atoms: _295  and  _296
REMARK  116  A    between atoms: _295  and  _298
REMARK  117  A    between atoms: _298  and  _299
REMARK  118  A    between atoms: _303  and  _304
REMARK  119  A    between atoms: _309  and  _311
REMARK  120  A    between atoms: _311  and  _312
REMARK  121  A    between atoms: _311  and  _314
REMARK  122  A    between atoms: _314  and  _315
REMARK  123  A    between atoms: _317  and  _319
REMARK  124  A    between atoms: _319  and  _320
REMARK  125  A    between atoms: _319  and  _322
REMARK  126  A    between atoms: _322  and  _323
REMARK  127  A    between atoms: _323  and  _324
REMARK  128  A    between atoms: _329  and  _331
REMARK  129  A    between atoms: _331  and  _332
REMARK  130  A    between atoms: _331  and  _334
REMARK  131  A    between atoms: _334  and  _335
REMARK  132  A    between atoms: _338  and  _340
REMARK  133  A    between atoms: _340  and  _341
REMARK  134  A    between atoms: _340  and  _343
REMARK  135  A    between atoms: _343  and  _344
REMARK  136  A    between atoms: _347  and  _349
REMARK  137  A    between atoms: _349  and  _350
REMARK  138  A    between atoms: _349  and  _352
REMARK  139  A    between atoms: _352  and  _353
REMARK  140  A    between atoms: _356  and  _358
REMARK  141  A    between atoms: _358  and  _359
REMARK  142  A    between atoms: _358  and  _361
REMARK  143  A    between atoms: _361  and  _362
REMARK  144  A    between atoms: _365  and  _367
REMARK  145  A    between atoms: _367  and  _368
REMARK  146  A    between atoms: _367  and  _370
REMARK  147  A    between atoms: _370  and  _371
REMARK  148  A    between atoms: _376  and  _378
REMARK  149  A    between atoms: _378  and  _379
REMARK  150  A    between atoms: _382  and  _384
REMARK  151  A    between atoms: _384  and  _385
REMARK  152  A    between atoms: _388  and  _390
REMARK  153  A    between atoms: _390  and  _391
REMARK  154  A    between atoms: _390  and  _393
REMARK  155  A    between atoms: _393  and  _394
REMARK  156  A    between atoms: _399  and  _400
REMARK  157  A    between atoms: _402  and  _404
REMARK  158  A    between atoms: _404  and  _405
REMARK  159  A    between atoms: _404  and  _407
REMARK  160  A    between atoms: _407  and  _408
REMARK  161  A    between atoms: _410  and  _412
REMARK  162  A    between atoms: _412  and  _413
REMARK  163  A    between atoms: _412  and  _415
REMARK  164  A    between atoms: _415  and  _416
REMARK  165  A    between atoms: _419  and  _421
REMARK  166  A    between atoms: _421  and  _422
REMARK  167  A    between atoms: _421  and  _424
REMARK  168  A    between atoms: _427  and  _429
REMARK  169  A    between atoms: _429  and  _430
REMARK  170  A    between atoms: _429  and  _432
REMARK  171  A    between atoms: _432  and  _433
REMARK  172  A    between atoms: _439  and  _441
REMARK  173  A    between atoms: _441  and  _442
REMARK  174  A    between atoms: _441  and  _444
REMARK  175  A    between atoms: _444  and  _445
REMARK  176  A    between atoms: _450  and  _452
REMARK  177  A    between atoms: _452  and  _453
REMARK  178  A    between atoms: _456  and  _458
REMARK  179  A    between atoms: _458  and  _459
REMARK  180  A    between atoms: _458  and  _461
REMARK  181  A    between atoms: _461  and  _462
REMARK  182  A    between atoms: _465  and  _467
REMARK  183  A    between atoms: _467  and  _468
REMARK  184  A    between atoms: _470  and  _472
REMARK  185  A    between atoms: _472  and  _473
REMARK  186  A    between atoms: _475  and  _477
REMARK  187  A    between atoms: _477  and  _478
REMARK  188  A    between atoms: _477  and  _480
REMARK  189  A    between atoms: _480  and  _481
REMARK  190  A    between atoms: _484  and  _486
REMARK  191  A    between atoms: _486  and  _487
REMARK  192  A    between atoms: _489  and  _491
REMARK  193  A    between atoms: _491  and  _492
REMARK  194  A    between atoms: _491  and  _494
REMARK  195  A    between atoms: _494  and  _495
REMARK  196  A    between atoms: _497  and  _499
REMARK  197  A    between atoms: _499  and  _500
REMARK  198  A    between atoms: _499  and  _502
REMARK  199  A    between atoms: _502  and  _503
REMARK                            x       y       z     vdW  Elec       q    Type
REMARK                         _______ _______ _______ _____ _____    ______ ____
ROOT
ATOM      1  O   HOH     1      29.349  42.704  67.271  0.00  0.00    +0.000 OA
ENDROOT
TORSDOF 0
REMARK  Name = ../refined-set-2016/4a95/4a95_pocket.pdb
REMARK  199 active torsions:
REMARK  status: ('A' for Active; 'I' for Inactive)
REMARK    1  A    between atoms: _1  and  _3
REMARK    2  A    between atoms: _3  and  _4
REMARK    3  A    between atoms: _3  and  _6
REMARK    4  A    between atoms: _6  and  _7
REMARK    5  A    between atoms: _12  and  _13
REMARK    6  A    between atoms: _15  and  _17
REMARK    7  A    between atoms: _17  and  _18
REMARK    8  A    between atoms: _17  and  _20
REMARK    9  A    between atoms: _23  and  _25
REMARK   10  A    between atoms: _25  and  _26
REMARK   11  A    between atoms: _25  and  _28
REMARK   12  A    between atoms: _28  and  _29
REMARK   13  A    between atoms: _29  and  _30
REMARK   14  A    between atoms: _33  and  _35
REMARK   15  A    between atoms: _35  and  _36
REMARK   16  A    between atoms: _35  and  _38
REMARK   17  A    between atoms: _38  and  _39
REMARK   18  A    between atoms: _42  and  _44
REMARK   19  A    between atoms: _44  and  _45
REMARK   20  A    between atoms: _44  and  _47
REMARK   21  A    between atoms: _47  and  _48
REMARK   22  A    between atoms: _51  and  _53
REMARK   23  A    between atoms: _53  and  _54
REMARK   24  A    between atoms: _53  and  _56
REMARK   25  A    between atoms: _56  and  _57
REMARK   26  A    between atoms: _60  and  _62
REMARK   27  A    between atoms: _62  and  _63
REMARK   28  A    between atoms: _62  and  _65
REMARK   29  A    between atoms: _65  and  _66
REMARK   30  A    between atoms: _71  and  _73
REMARK   31  A    between atoms: _73  and  _74
REMARK   32  A    between atoms: _73  and  _76
REMARK   33  A    between atoms: _76  and  _77
REMARK   34  A    between atoms: _80  and  _82
REMARK   35  A    between atoms: _82  and  _83
REMARK   36  A    between atoms: _82  and  _85
REMARK   37  A    between atoms: _85  and  _86
REMARK   38  A    between atoms: _92  and  _94
REMARK   39  A    between atoms: _94  and  _95
REMARK   40  A    between atoms: _94  and  _97
REMARK   41  A    between atoms: _97  and  _98
REMARK   42  A    between atoms: _98  and  _99
REMARK   43  A    between atoms: _99  and  _100
REMARK   44  A    between atoms: _109  and  _111
REMARK   45  A    between atoms: _111  and  _112
REMARK   46  A    between atoms: _111  and  _114
REMARK   47  A    between atoms: _114  and  _115
REMARK   48  A    between atoms: _121  and  _123
REMARK   49  A    between atoms: _123  and  _124
REMARK   50  A    between atoms: _123  and  _126
REMARK   51  A    between atoms: _126  and  _127
REMARK   52  A    between atoms: _132  and  _134
REMARK   53  A    between atoms: _134  and  _135
REMARK   54  A    between atoms: _138  and  _140
REMARK   55  A    between atoms: _140  and  _141
REMARK   56  A    between atoms: _143  and  _145
REMARK   57  A    between atoms: _145  and  _146
REMARK   58  A    between atoms: _145  and  _148
REMARK   59  A    between atoms: _151  and  _153
REMARK   60  A    between atoms: _153  and  _154
REMARK   61  A    between atoms: _153  and  _156
REMARK   62  A    between atoms: _156  and  _157
REMARK   63  A    between atoms: _157  and  _158
REMARK   64  A    between atoms: _158  and  _159
REMARK   65  A    between atoms: _168  and  _170
REMARK   66  A    between atoms: _170  and  _171
REMARK   67  A    between atoms: _170  and  _173
REMARK   68  A    between atoms: _173  and  _174
REMARK   69  A    between atoms: _179  and  _180
REMARK   70  A    between atoms: _182  and  _184
REMARK   71  A    between atoms: _184  and  _185
REMARK   72  A    between atoms: _184  and  _187
REMARK   73  A    between atoms: _187  and  _188
REMARK   74  A    between atoms: _193  and  _194
REMARK   75  A    between atoms: _196  and  _198
REMARK   76  A    between atoms: _198  and  _199
REMARK   77  A    between atoms: _198  and  _201
REMARK   78  A    between atoms: _201  and  _202
REMARK   79  A    between atoms: _207  and  _209
REMARK   80  A    between atoms: _209  and  _210
REMARK   81  A    between atoms: _209  and  _212
REMARK   82  A    between atoms: _212  and  _213
REMARK   83  A    between atoms: _213  and  _214
REMARK   84  A    between atoms: _214  and  _215
REMARK   85  A    between atoms: _224  and  _226
REMARK   86  A    between atoms: _226  and  _227
REMARK   87  A    between atoms: _226  and  _229
REMARK   88  A    between atoms: _229  and  _230
REMARK   89  A    between atoms: _232  and  _234
REMARK   90  A    between atoms: _234  and  _235
REMARK   91  A    between atoms: _234  and  _237
REMARK   92  A    between atoms: _237  and  _238
REMARK   93  A    between atoms: _241  and  _243
REMARK   94  A    between atoms: _243  and  _244
REMARK   95  A    between atoms: _243  and  _246
REMARK   96  A    between atoms: _246  and  _247
REMARK   97  A    between atoms: _250  and  _252
REMARK   98  A    between atoms: _252  and  _253
REMARK   99  A    between atoms: _252  and  _255
REMARK  100  A    between atoms: _255  and  _256
REMARK  101  A    between atoms: _259  and  _261
REMARK  102  A    between atoms: _261  and  _262
REMARK  103  A    between atoms: _261  and  _264
REMARK  104  A    between atoms: _264  and  _265
REMARK  105  A    between atoms: _271  and  _273
REMARK  106  A    between atoms: _273  and  _274
REMARK  107  A    between atoms: _273  and  _276
REMARK  108  A    between atoms: _276  and  _277
REMARK  109  A    between atoms: _279  and  _281
REMARK  110  A    between atoms: _281  and  _282
REMARK  111  A    between atoms: _281  and  _284
REMARK  112  A    between atoms: _284  and  _285
REMARK  113  A    between atoms: _290  and  _291
REMARK  114  A    between atoms: _293  and  _295
REMARK  115  A    between atoms: _295  and  _296
REMARK  116  A    between atoms: _295  and  _298
REMARK  117  A    between atoms: _298  and  _299
REMARK  118  A    between atoms: _303  and  _304
REMARK  119  A    between atoms: _309  and  _311
REMARK  120  A    between atoms: _311  and  _312
REMARK  121  A    between atoms: _311  and  _314
REMARK  122  A    between atoms: _314  and  _315
REMARK  123  A    between atoms: _317  and  _319
REMARK  124  A    between atoms: _319  and  _320
REMARK  125  A    between atoms: _319  and  _322
REMARK  126  A    between atoms: _322  and  _323
REMARK  127  A    between atoms: _323  and  _324
REMARK  128  A    between atoms: _329  and  _331
REMARK  129  A    between atoms: _331  and  _332
REMARK  130  A    between atoms: _331  and  _334
REMARK  131  A    between atoms: _334  and  _335
REMARK  132  A    between atoms: _338  and  _340
REMARK  133  A    between atoms: _340  and  _341
REMARK  134  A    between atoms: _340  and  _343
REMARK  135  A    between atoms: _343  and  _344
REMARK  136  A    between atoms: _347  and  _349
REMARK  137  A    between atoms: _349  and  _350
REMARK  138  A    between atoms: _349  and  _352
REMARK  139  A    between atoms: _352  and  _353
REMARK  140  A    between atoms: _356  and  _358
REMARK  141  A    between atoms: _358  and  _359
REMARK  142  A    between atoms: _358  and  _361
REMARK  143  A    between atoms: _361  and  _362
REMARK  144  A    between atoms: _365  and  _367
REMARK  145  A    between atoms: _367  and  _368
REMARK  146  A    between atoms: _367  and  _370
REMARK  147  A    between atoms: _370  and  _371
REMARK  148  A    between atoms: _376  and  _378
REMARK  149  A    between atoms: _378  and  _379
REMARK  150  A    between atoms: _382  and  _384
REMARK  151  A    between atoms: _384  and  _385
REMARK  152  A    between atoms: _388  and  _390
REMARK  153  A    between atoms: _390  and  _391
REMARK  154  A    between atoms: _390  and  _393
REMARK  155  A    between atoms: _393  and  _394
REMARK  156  A    between atoms: _399  and  _400
REMARK  157  A    between atoms: _402  and  _404
REMARK  158  A    between atoms: _404  and  _405
REMARK  159  A    between atoms: _404  and  _407
REMARK  160  A    between atoms: _407  and  _408
REMARK  161  A    between atoms: _410  and  _412
REMARK  162  A    between atoms: _412  and  _413
REMARK  163  A    between atoms: _412  and  _415
REMARK  164  A    between atoms: _415  and  _416
REMARK  165  A    between atoms: _419  and  _421
REMARK  166  A    between atoms: _421  and  _422
REMARK  167  A    between atoms: _421  and  _424
REMARK  168  A    between atoms: _427  and  _429
REMARK  169  A    between atoms: _429  and  _430
REMARK  170  A    between atoms: _429  and  _432
REMARK  171  A    between atoms: _432  and  _433
REMARK  172  A    between atoms: _439  and  _441
REMARK  173  A    between atoms: _441  and  _442
REMARK  174  A    between atoms: _441  and  _444
REMARK  175  A    between atoms: _444  and  _445
REMARK  176  A    between atoms: _450  and  _452
REMARK  177  A    between atoms: _452  and  _453
REMARK  178  A    between atoms: _456  and  _458
REMARK  179  A    between atoms: _458  and  _459
REMARK  180  A    between atoms: _458  and  _461
REMARK  181  A    between atoms: _461  and  _462
REMARK  182  A    between atoms: _465  and  _467
REMARK  183  A    between atoms: _467  and  _468
REMARK  184  A    between atoms: _470  and  _472
REMARK  185  A    between atoms: _472  and  _473
REMARK  186  A    between atoms: _475  and  _477
REMARK  187  A    between atoms: _477  and  _478
REMARK  188  A    between atoms: _477  and  _480
REMARK  189  A    between atoms: _480  and  _481
REMARK  190  A    between atoms: _484  and  _486
REMARK  191  A    between atoms: _486  and  _487
REMARK  192  A    between atoms: _489  and  _491
REMARK  193  A    between atoms: _491  and  _492
REMARK  194  A    between atoms: _491  and  _494
REMARK  195  A    between atoms: _494  and  _495
REMARK  196  A    between atoms: _497  and  _499
REMARK  197  A    between atoms: _499  and  _500
REMARK  198  A    between atoms: _499  and  _502
REMARK  199  A    between atoms: _502  and  _503
REMARK                            x       y       z     vdW  Elec       q    Type
REMARK                         _______ _______ _______ _____ _____    ______ ____
ROOT
ATOM      1  O   HOH     1      31.439  45.872  61.564  0.00  0.00    +0.000 OA
ENDROOT
TORSDOF 0
REMARK  Name = ../refined-set-2016/4a95/4a95_pocket.pdb
REMARK  199 active torsions:
REMARK  status: ('A' for Active; 'I' for Inactive)
REMARK    1  A    between atoms: _1  and  _3
REMARK    2  A    between atoms: _3  and  _4
REMARK    3  A    between atoms: _3  and  _6
REMARK    4  A    between atoms: _6  and  _7
REMARK    5  A    between atoms: _12  and  _13
REMARK    6  A    between atoms: _15  and  _17
REMARK    7  A    between atoms: _17  and  _18
REMARK    8  A    between atoms: _17  and  _20
REMARK    9  A    between atoms: _23  and  _25
REMARK   10  A    between atoms: _25  and  _26
REMARK   11  A    between atoms: _25  and  _28
REMARK   12  A    between atoms: _28  and  _29
REMARK   13  A    between atoms: _29  and  _30
REMARK   14  A    between atoms: _33  and  _35
REMARK   15  A    between atoms: _35  and  _36
REMARK   16  A    between atoms: _35  and  _38
REMARK   17  A    between atoms: _38  and  _39
REMARK   18  A    between atoms: _42  and  _44
REMARK   19  A    between atoms: _44  and  _45
REMARK   20  A    between atoms: _44  and  _47
REMARK   21  A    between atoms: _47  and  _48
REMARK   22  A    between atoms: _51  and  _53
REMARK   23  A    between atoms: _53  and  _54
REMARK   24  A    between atoms: _53  and  _56
REMARK   25  A    between atoms: _56  and  _57
REMARK   26  A    between atoms: _60  and  _62
REMARK   27  A    between atoms: _62  and  _63
REMARK   28  A    between atoms: _62  and  _65
REMARK   29  A    between atoms: _65  and  _66
REMARK   30  A    between atoms: _71  and  _73
REMARK   31  A    between atoms: _73  and  _74
REMARK   32  A    between atoms: _73  and  _76
REMARK   33  A    between atoms: _76  and  _77
REMARK   34  A    between atoms: _80  and  _82
REMARK   35  A    between atoms: _82  and  _83
REMARK   36  A    between atoms: _82  and  _85
REMARK   37  A    between atoms: _85  and  _86
REMARK   38  A    between atoms: _92  and  _94
REMARK   39  A    between atoms: _94  and  _95
REMARK   40  A    between atoms: _94  and  _97
REMARK   41  A    between atoms: _97  and  _98
REMARK   42  A    between atoms: _98  and  _99
REMARK   43  A    between atoms: _99  and  _100
REMARK   44  A    between atoms: _109  and  _111
REMARK   45  A    between atoms: _111  and  _112
REMARK   46  A    between atoms: _111  and  _114
REMARK   47  A    between atoms: _114  and  _115
REMARK   48  A    between atoms: _121  and  _123
REMARK   49  A    between atoms: _123  and  _124
REMARK   50  A    between atoms: _123  and  _126
REMARK   51  A    between atoms: _126  and  _127
REMARK   52  A    between atoms: _132  and  _134
REMARK   53  A    between atoms: _134  and  _135
REMARK   54  A    between atoms: _138  and  _140
REMARK   55  A    between atoms: _140  and  _141
REMARK   56  A    between atoms: _143  and  _145
REMARK   57  A    between atoms: _145  and  _146
REMARK   58  A    between atoms: _145  and  _148
REMARK   59  A    between atoms: _151  and  _153
REMARK   60  A    between atoms: _153  and  _154
REMARK   61  A    between atoms: _153  and  _156
REMARK   62  A    between atoms: _156  and  _157
REMARK   63  A    between atoms: _157  and  _158
REMARK   64  A    between atoms: _158  and  _159
REMARK   65  A    between atoms: _168  and  _170
REMARK   66  A    between atoms: _170  and  _171
REMARK   67  A    between atoms: _170  and  _173
REMARK   68  A    between atoms: _173  and  _174
REMARK   69  A    between atoms: _179  and  _180
REMARK   70  A    between atoms: _182  and  _184
REMARK   71  A    between atoms: _184  and  _185
REMARK   72  A    between atoms: _184  and  _187
REMARK   73  A    between atoms: _187  and  _188
REMARK   74  A    between atoms: _193  and  _194
REMARK   75  A    between atoms: _196  and  _198
REMARK   76  A    between atoms: _198  and  _199
REMARK   77  A    between atoms: _198  and  _201
REMARK   78  A    between atoms: _201  and  _202
REMARK   79  A    between atoms: _207  and  _209
REMARK   80  A    between atoms: _209  and  _210
REMARK   81  A    between atoms: _209  and  _212
REMARK   82  A    between atoms: _212  and  _213
REMARK   83  A    between atoms: _213  and  _214
REMARK   84  A    between atoms: _214  and  _215
REMARK   85  A    between atoms: _224  and  _226
REMARK   86  A    between atoms: _226  and  _227
REMARK   87  A    between atoms: _226  and  _229
REMARK   88  A    between atoms: _229  and  _230
REMARK   89  A    between atoms: _232  and  _234
REMARK   90  A    between atoms: _234  and  _235
REMARK   91  A    between atoms: _234  and  _237
REMARK   92  A    between atoms: _237  and  _238
REMARK   93  A    between atoms: _241  and  _243
REMARK   94  A    between atoms: _243  and  _244
REMARK   95  A    between atoms: _243  and  _246
REMARK   96  A    between atoms: _246  and  _247
REMARK   97  A    between atoms: _250  and  _252
REMARK   98  A    between atoms: _252  and  _253
REMARK   99  A    between atoms: _252  and  _255
REMARK  100  A    between atoms: _255  and  _256
REMARK  101  A    between atoms: _259  and  _261
REMARK  102  A    between atoms: _261  and  _262
REMARK  103  A    between atoms: _261  and  _264
REMARK  104  A    between atoms: _264  and  _265
REMARK  105  A    between atoms: _271  and  _273
REMARK  106  A    between atoms: _273  and  _274
REMARK  107  A    between atoms: _273  and  _276
REMARK  108  A    between atoms: _276  and  _277
REMARK  109  A    between atoms: _279  and  _281
REMARK  110  A    between atoms: _281  and  _282
REMARK  111  A    between atoms: _281  and  _284
REMARK  112  A    between atoms: _284  and  _285
REMARK  113  A    between atoms: _290  and  _291
REMARK  114  A    between atoms: _293  and  _295
REMARK  115  A    between atoms: _295  and  _296
REMARK  116  A    between atoms: _295  and  _298
REMARK  117  A    between atoms: _298  and  _299
REMARK  118  A    between atoms: _303  and  _304
REMARK  119  A    between atoms: _309  and  _311
REMARK  120  A    between atoms: _311  and  _312
REMARK  121  A    between atoms: _311  and  _314
REMARK  122  A    between atoms: _314  and  _315
REMARK  123  A    between atoms: _317  and  _319
REMARK  124  A    between atoms: _319  and  _320
REMARK  125  A    between atoms: _319  and  _322
REMARK  126  A    between atoms: _322  and  _323
REMARK  127  A    between atoms: _323  and  _324
REMARK  128  A    between atoms: _329  and  _331
REMARK  129  A    between atoms: _331  and  _332
REMARK  130  A    between atoms: _331  and  _334
REMARK  131  A    between atoms: _334  and  _335
REMARK  132  A    between atoms: _338  and  _340
REMARK  133  A    between atoms: _340  and  _341
REMARK  134  A    between atoms: _340  and  _343
REMARK  135  A    between atoms: _343  and  _344
REMARK  136  A    between atoms: _347  and  _349
REMARK  137  A    between atoms: _349  and  _350
REMARK  138  A    between atoms: _349  and  _352
REMARK  139  A    between atoms: _352  and  _353
REMARK  140  A    between atoms: _356  and  _358
REMARK  141  A    between atoms: _358  and  _359
REMARK  142  A    between atoms: _358  and  _361
REMARK  143  A    between atoms: _361  and  _362
REMARK  144  A    between atoms: _365  and  _367
REMARK  145  A    between atoms: _367  and  _368
REMARK  146  A    between atoms: _367  and  _370
REMARK  147  A    between atoms: _370  and  _371
REMARK  148  A    between atoms: _376  and  _378
REMARK  149  A    between atoms: _378  and  _379
REMARK  150  A    between atoms: _382  and  _384
REMARK  151  A    between atoms: _384  and  _385
REMARK  152  A    between atoms: _388  and  _390
REMARK  153  A    between atoms: _390  and  _391
REMARK  154  A    between atoms: _390  and  _393
REMARK  155  A    between atoms: _393  and  _394
REMARK  156  A    between atoms: _399  and  _400
REMARK  157  A    between atoms: _402  and  _404
REMARK  158  A    between atoms: _404  and  _405
REMARK  159  A    between atoms: _404  and  _407
REMARK  160  A    between atoms: _407  and  _408
REMARK  161  A    between atoms: _410  and  _412
REMARK  162  A    between atoms: _412  and  _413
REMARK  163  A    between atoms: _412  and  _415
REMARK  164  A    between atoms: _415  and  _416
REMARK  165  A    between atoms: _419  and  _421
REMARK  166  A    between atoms: _421  and  _422
REMARK  167  A    between atoms: _421  and  _424
REMARK  168  A    between atoms: _427  and  _429
REMARK  169  A    between atoms: _429  and  _430
REMARK  170  A    between atoms: _429  and  _432
REMARK  171  A    between atoms: _432  and  _433
REMARK  172  A    between atoms: _439  and  _441
REMARK  173  A    between atoms: _441  and  _442
REMARK  174  A    between atoms: _441  and  _444
REMARK  175  A    between atoms: _444  and  _445
REMARK  176  A    between atoms: _450  and  _452
REMARK  177  A    between atoms: _452  and  _453
REMARK  178  A    between atoms: _456  and  _458
REMARK  179  A    between atoms: _458  and  _459
REMARK  180  A    between atoms: _458  and  _461
REMARK  181  A    between atoms: _461  and  _462
REMARK  182  A    between atoms: _465  and  _467
REMARK  183  A    between atoms: _467  and  _468
REMARK  184  A    between atoms: _470  and  _472
REMARK  185  A    between atoms: _472  and  _473
REMARK  186  A    between atoms: _475  and  _477
REMARK  187  A    between atoms: _477  and  _478
REMARK  188  A    between atoms: _477  and  _480
REMARK  189  A    between atoms: _480  and  _481
REMARK  190  A    between atoms: _484  and  _486
REMARK  191  A    between atoms: _486  and  _487
REMARK  192  A    between atoms: _489  and  _491
REMARK  193  A    between atoms: _491  and  _492
REMARK  194  A    between atoms: _491  and  _494
REMARK  195  A    between atoms: _494  and  _495
REMARK  196  A    between atoms: _497  and  _499
REMARK  197  A    between atoms: _499  and  _500
REMARK  198  A    between atoms: _499  and  _502
REMARK  199  A    between atoms: _502  and  _503
REMARK                            x       y       z     vdW  Elec       q    Type
REMARK                         _______ _______ _______ _____ _____    ______ ____
ROOT
ATOM      1  O   HOH     1      14.678  46.983  55.847  0.00  0.00    +0.000 OA
ENDROOT
TORSDOF 0
REMARK  Name = ../refined-set-2016/4a95/4a95_pocket.pdb
REMARK  199 active torsions:
REMARK  status: ('A' for Active; 'I' for Inactive)
REMARK    1  A    between atoms: _1  and  _3
REMARK    2  A    between atoms: _3  and  _4
REMARK    3  A    between atoms: _3  and  _6
REMARK    4  A    between atoms: _6  and  _7
REMARK    5  A    between atoms: _12  and  _13
REMARK    6  A    between atoms: _15  and  _17
REMARK    7  A    between atoms: _17  and  _18
REMARK    8  A    between atoms: _17  and  _20
REMARK    9  A    between atoms: _23  and  _25
REMARK   10  A    between atoms: _25  and  _26
REMARK   11  A    between atoms: _25  and  _28
REMARK   12  A    between atoms: _28  and  _29
REMARK   13  A    between atoms: _29  and  _30
REMARK   14  A    between atoms: _33  and  _35
REMARK   15  A    between atoms: _35  and  _36
REMARK   16  A    between atoms: _35  and  _38
REMARK   17  A    between atoms: _38  and  _39
REMARK   18  A    between atoms: _42  and  _44
REMARK   19  A    between atoms: _44  and  _45
REMARK   20  A    between atoms: _44  and  _47
REMARK   21  A    between atoms: _47  and  _48
REMARK   22  A    between atoms: _51  and  _53
REMARK   23  A    between atoms: _53  and  _54
REMARK   24  A    between atoms: _53  and  _56
REMARK   25  A    between atoms: _56  and  _57
REMARK   26  A    between atoms: _60  and  _62
REMARK   27  A    between atoms: _62  and  _63
REMARK   28  A    between atoms: _62  and  _65
REMARK   29  A    between atoms: _65  and  _66
REMARK   30  A    between atoms: _71  and  _73
REMARK   31  A    between atoms: _73  and  _74
REMARK   32  A    between atoms: _73  and  _76
REMARK   33  A    between atoms: _76  and  _77
REMARK   34  A    between atoms: _80  and  _82
REMARK   35  A    between atoms: _82  and  _83
REMARK   36  A    between atoms: _82  and  _85
REMARK   37  A    between atoms: _85  and  _86
REMARK   38  A    between atoms: _92  and  _94
REMARK   39  A    between atoms: _94  and  _95
REMARK   40  A    between atoms: _94  and  _97
REMARK   41  A    between atoms: _97  and  _98
REMARK   42  A    between atoms: _98  and  _99
REMARK   43  A    between atoms: _99  and  _100
REMARK   44  A    between atoms: _109  and  _111
REMARK   45  A    between atoms: _111  and  _112
REMARK   46  A    between atoms: _111  and  _114
REMARK   47  A    between atoms: _114  and  _115
REMARK   48  A    between atoms: _121  and  _123
REMARK   49  A    between atoms: _123  and  _124
REMARK   50  A    between atoms: _123  and  _126
REMARK   51  A    between atoms: _126  and  _127
REMARK   52  A    between atoms: _132  and  _134
REMARK   53  A    between atoms: _134  and  _135
REMARK   54  A    between atoms: _138  and  _140
REMARK   55  A    between atoms: _140  and  _141
REMARK   56  A    between atoms: _143  and  _145
REMARK   57  A    between atoms: _145  and  _146
REMARK   58  A    between atoms: _145  and  _148
REMARK   59  A    between atoms: _151  and  _153
REMARK   60  A    between atoms: _153  and  _154
REMARK   61  A    between atoms: _153  and  _156
REMARK   62  A    between atoms: _156  and  _157
REMARK   63  A    between atoms: _157  and  _158
REMARK   64  A    between atoms: _158  and  _159
REMARK   65  A    between atoms: _168  and  _170
REMARK   66  A    between atoms: _170  and  _171
REMARK   67  A    between atoms: _170  and  _173
REMARK   68  A    between atoms: _173  and  _174
REMARK   69  A    between atoms: _179  and  _180
REMARK   70  A    between atoms: _182  and  _184
REMARK   71  A    between atoms: _184  and  _185
REMARK   72  A    between atoms: _184  and  _187
REMARK   73  A    between atoms: _187  and  _188
REMARK   74  A    between atoms: _193  and  _194
REMARK   75  A    between atoms: _196  and  _198
REMARK   76  A    between atoms: _198  and  _199
REMARK   77  A    between atoms: _198  and  _201
REMARK   78  A    between atoms: _201  and  _202
REMARK   79  A    between atoms: _207  and  _209
REMARK   80  A    between atoms: _209  and  _210
REMARK   81  A    between atoms: _209  and  _212
REMARK   82  A    between atoms: _212  and  _213
REMARK   83  A    between atoms: _213  and  _214
REMARK   84  A    between atoms: _214  and  _215
REMARK   85  A    between atoms: _224  and  _226
REMARK   86  A    between atoms: _226  and  _227
REMARK   87  A    between atoms: _226  and  _229
REMARK   88  A    between atoms: _229  and  _230
REMARK   89  A    between atoms: _232  and  _234
REMARK   90  A    between atoms: _234  and  _235
REMARK   91  A    between atoms: _234  and  _237
REMARK   92  A    between atoms: _237  and  _238
REMARK   93  A    between atoms: _241  and  _243
REMARK   94  A    between atoms: _243  and  _244
REMARK   95  A    between atoms: _243  and  _246
REMARK   96  A    between atoms: _246  and  _247
REMARK   97  A    between atoms: _250  and  _252
REMARK   98  A    between atoms: _252  and  _253
REMARK   99  A    between atoms: _252  and  _255
REMARK  100  A    between atoms: _255  and  _256
REMARK  101  A    between atoms: _259  and  _261
REMARK  102  A    between atoms: _261  and  _262
REMARK  103  A    between atoms: _261  and  _264
REMARK  104  A    between atoms: _264  and  _265
REMARK  105  A    between atoms: _271  and  _273
REMARK  106  A    between atoms: _273  and  _274
REMARK  107  A    between atoms: _273  and  _276
REMARK  108  A    between atoms: _276  and  _277
REMARK  109  A    between atoms: _279  and  _281
REMARK  110  A    between atoms: _281  and  _282
REMARK  111  A    between atoms: _281  and  _284
REMARK  112  A    between atoms: _284  and  _285
REMARK  113  A    between atoms: _290  and  _291
REMARK  114  A    between atoms: _293  and  _295
REMARK  115  A    between atoms: _295  and  _296
REMARK  116  A    between atoms: _295  and  _298
REMARK  117  A    between atoms: _298  and  _299
REMARK  118  A    between atoms: _303  and  _304
REMARK  119  A    between atoms: _309  and  _311
REMARK  120  A    between atoms: _311  and  _312
REMARK  121  A    between atoms: _311  and  _314
REMARK  122  A    between atoms: _314  and  _315
REMARK  123  A    between atoms: _317  and  _319
REMARK  124  A    between atoms: _319  and  _320
REMARK  125  A    between atoms: _319  and  _322
REMARK  126  A    between atoms: _322  and  _323
REMARK  127  A    between atoms: _323  and  _324
REMARK  128  A    between atoms: _329  and  _331
REMARK  129  A    between atoms: _331  and  _332
REMARK  130  A    between atoms: _331  and  _334
REMARK  131  A    between atoms: _334  and  _335
REMARK  132  A    between atoms: _338  and  _340
REMARK  133  A    between atoms: _340  and  _341
REMARK  134  A    between atoms: _340  and  _343
REMARK  135  A    between atoms: _343  and  _344
REMARK  136  A    between atoms: _347  and  _349
REMARK  137  A    between atoms: _349  and  _350
REMARK  138  A    between atoms: _349  and  _352
REMARK  139  A    between atoms: _352  and  _353
REMARK  140  A    between atoms: _356  and  _358
REMARK  141  A    between atoms: _358  and  _359
REMARK  142  A    between atoms: _358  and  _361
REMARK  143  A    between atoms: _361  and  _362
REMARK  144  A    between atoms: _365  and  _367
REMARK  145  A    between atoms: _367  and  _368
REMARK  146  A    between atoms: _367  and  _370
REMARK  147  A    between atoms: _370  and  _371
REMARK  148  A    between atoms: _376  and  _378
REMARK  149  A    between atoms: _378  and  _379
REMARK  150  A    between atoms: _382  and  _384
REMARK  151  A    between atoms: _384  and  _385
REMARK  152  A    between atoms: _388  and  _390
REMARK  153  A    between atoms: _390  and  _391
REMARK  154  A    between atoms: _390  and  _393
REMARK  155  A    between atoms: _393  and  _394
REMARK  156  A    between atoms: _399  and  _400
REMARK  157  A    between atoms: _402  and  _404
REMARK  158  A    between atoms: _404  and  _405
REMARK  159  A    between atoms: _404  and  _407
REMARK  160  A    between atoms: _407  and  _408
REMARK  161  A    between atoms: _410  and  _412
REMARK  162  A    between atoms: _412  and  _413
REMARK  163  A    between atoms: _412  and  _415
REMARK  164  A    between atoms: _415  and  _416
REMARK  165  A    between atoms: _419  and  _421
REMARK  166  A    between atoms: _421  and  _422
REMARK  167  A    between atoms: _421  and  _424
REMARK  168  A    between atoms: _427  and  _429
REMARK  169  A    between atoms: _429  and  _430
REMARK  170  A    between atoms: _429  and  _432
REMARK  171  A    between atoms: _432  and  _433
REMARK  172  A    between atoms: _439  and  _441
REMARK  173  A    between atoms: _441  and  _442
REMARK  174  A    between atoms: _441  and  _444
REMARK  175  A    between atoms: _444  and  _445
REMARK  176  A    between atoms: _450  and  _452
REMARK  177  A    between atoms: _452  and  _453
REMARK  178  A    between atoms: _456  and  _458
REMARK  179  A    between atoms: _458  and  _459
REMARK  180  A    between atoms: _458  and  _461
REMARK  181  A    between atoms: _461  and  _462
REMARK  182  A    between atoms: _465  and  _467
REMARK  183  A    between atoms: _467  and  _468
REMARK  184  A    between atoms: _470  and  _472
REMARK  185  A    between atoms: _472  and  _473
REMARK  186  A    between atoms: _475  and  _477
REMARK  187  A    between atoms: _477  and  _478
REMARK  188  A    between atoms: _477  and  _480
REMARK  189  A    between atoms: _480  and  _481
REMARK  190  A    between atoms: _484  and  _486
REMARK  191  A    between atoms: _486  and  _487
REMARK  192  A    between atoms: _489  and  _491
REMARK  193  A    between atoms: _491  and  _492
REMARK  194  A    between atoms: _491  and  _494
REMARK  195  A    between atoms: _494  and  _495
REMARK  196  A    between atoms: _497  and  _499
REMARK  197  A    between atoms: _499  and  _500
REMARK  198  A    between atoms: _499  and  _502
REMARK  199  A    between atoms: _502  and  _503
REMARK                            x       y       z     vdW  Elec       q    Type
REMARK                         _______ _______ _______ _____ _____    ______ ____
ROOT
ATOM      1  O   HOH     1      32.929  50.937  64.179  0.00  0.00    +0.000 OA
ENDROOT
TORSDOF 0
REMARK  Name = ../refined-set-2016/4a95/4a95_pocket.pdb
REMARK  199 active torsions:
REMARK  status: ('A' for Active; 'I' for Inactive)
REMARK    1  A    between atoms: _1  and  _3
REMARK    2  A    between atoms: _3  and  _4
REMARK    3  A    between atoms: _3  and  _6
REMARK    4  A    between atoms: _6  and  _7
REMARK    5  A    between atoms: _12  and  _13
REMARK    6  A    between atoms: _15  and  _17
REMARK    7  A    between atoms: _17  and  _18
REMARK    8  A    between atoms: _17  and  _20
REMARK    9  A    between atoms: _23  and  _25
REMARK   10  A    between atoms: _25  and  _26
REMARK   11  A    between atoms: _25  and  _28
REMARK   12  A    between atoms: _28  and  _29
REMARK   13  A    between atoms: _29  and  _30
REMARK   14  A    between atoms: _33  and  _35
REMARK   15  A    between atoms: _35  and  _36
REMARK   16  A    between atoms: _35  and  _38
REMARK   17  A    between atoms: _38  and  _39
REMARK   18  A    between atoms: _42  and  _44
REMARK   19  A    between atoms: _44  and  _45
REMARK   20  A    between atoms: _44  and  _47
REMARK   21  A    between atoms: _47  and  _48
REMARK   22  A    between atoms: _51  and  _53
REMARK   23  A    between atoms: _53  and  _54
REMARK   24  A    between atoms: _53  and  _56
REMARK   25  A    between atoms: _56  and  _57
REMARK   26  A    between atoms: _60  and  _62
REMARK   27  A    between atoms: _62  and  _63
REMARK   28  A    between atoms: _62  and  _65
REMARK   29  A    between atoms: _65  and  _66
REMARK   30  A    between atoms: _71  and  _73
REMARK   31  A    between atoms: _73  and  _74
REMARK   32  A    between atoms: _73  and  _76
REMARK   33  A    between atoms: _76  and  _77
REMARK   34  A    between atoms: _80  and  _82
REMARK   35  A    between atoms: _82  and  _83
REMARK   36  A    between atoms: _82  and  _85
REMARK   37  A    between atoms: _85  and  _86
REMARK   38  A    between atoms: _92  and  _94
REMARK   39  A    between atoms: _94  and  _95
REMARK   40  A    between atoms: _94  and  _97
REMARK   41  A    between atoms: _97  and  _98
REMARK   42  A    between atoms: _98  and  _99
REMARK   43  A    between atoms: _99  and  _100
REMARK   44  A    between atoms: _109  and  _111
REMARK   45  A    between atoms: _111  and  _112
REMARK   46  A    between atoms: _111  and  _114
REMARK   47  A    between atoms: _114  and  _115
REMARK   48  A    between atoms: _121  and  _123
REMARK   49  A    between atoms: _123  and  _124
REMARK   50  A    between atoms: _123  and  _126
REMARK   51  A    between atoms: _126  and  _127
REMARK   52  A    between atoms: _132  and  _134
REMARK   53  A    between atoms: _134  and  _135
REMARK   54  A    between atoms: _138  and  _140
REMARK   55  A    between atoms: _140  and  _141
REMARK   56  A    between atoms: _143  and  _145
REMARK   57  A    between atoms: _145  and  _146
REMARK   58  A    between atoms: _145  and  _148
REMARK   59  A    between atoms: _151  and  _153
REMARK   60  A    between atoms: _153  and  _154
REMARK   61  A    between atoms: _153  and  _156
REMARK   62  A    between atoms: _156  and  _157
REMARK   63  A    between atoms: _157  and  _158
REMARK   64  A    between atoms: _158  and  _159
REMARK   65  A    between atoms: _168  and  _170
REMARK   66  A    between atoms: _170  and  _171
REMARK   67  A    between atoms: _170  and  _173
REMARK   68  A    between atoms: _173  and  _174
REMARK   69  A    between atoms: _179  and  _180
REMARK   70  A    between atoms: _182  and  _184
REMARK   71  A    between atoms: _184  and  _185
REMARK   72  A    between atoms: _184  and  _187
REMARK   73  A    between atoms: _187  and  _188
REMARK   74  A    between atoms: _193  and  _194
REMARK   75  A    between atoms: _196  and  _198
REMARK   76  A    between atoms: _198  and  _199
REMARK   77  A    between atoms: _198  and  _201
REMARK   78  A    between atoms: _201  and  _202
REMARK   79  A    between atoms: _207  and  _209
REMARK   80  A    between atoms: _209  and  _210
REMARK   81  A    between atoms: _209  and  _212
REMARK   82  A    between atoms: _212  and  _213
REMARK   83  A    between atoms: _213  and  _214
REMARK   84  A    between atoms: _214  and  _215
REMARK   85  A    between atoms: _224  and  _226
REMARK   86  A    between atoms: _226  and  _227
REMARK   87  A    between atoms: _226  and  _229
REMARK   88  A    between atoms: _229  and  _230
REMARK   89  A    between atoms: _232  and  _234
REMARK   90  A    between atoms: _234  and  _235
REMARK   91  A    between atoms: _234  and  _237
REMARK   92  A    between atoms: _237  and  _238
REMARK   93  A    between atoms: _241  and  _243
REMARK   94  A    between atoms: _243  and  _244
REMARK   95  A    between atoms: _243  and  _246
REMARK   96  A    between atoms: _246  and  _247
REMARK   97  A    between atoms: _250  and  _252
REMARK   98  A    between atoms: _252  and  _253
REMARK   99  A    between atoms: _252  and  _255
REMARK  100  A    between atoms: _255  and  _256
REMARK  101  A    between atoms: _259  and  _261
REMARK  102  A    between atoms: _261  and  _262
REMARK  103  A    between atoms: _261  and  _264
REMARK  104  A    between atoms: _264  and  _265
REMARK  105  A    between atoms: _271  and  _273
REMARK  106  A    between atoms: _273  and  _274
REMARK  107  A    between atoms: _273  and  _276
REMARK  108  A    between atoms: _276  and  _277
REMARK  109  A    between atoms: _279  and  _281
REMARK  110  A    between atoms: _281  and  _282
REMARK  111  A    between atoms: _281  and  _284
REMARK  112  A    between atoms: _284  and  _285
REMARK  113  A    between atoms: _290  and  _291
REMARK  114  A    between atoms: _293  and  _295
REMARK  115  A    between atoms: _295  and  _296
REMARK  116  A    between atoms: _295  and  _298
REMARK  117  A    between atoms: _298  and  _299
REMARK  118  A    between atoms: _303  and  _304
REMARK  119  A    between atoms: _309  and  _311
REMARK  120  A    between atoms: _311  and  _312
REMARK  121  A    between atoms: _311  and  _314
REMARK  122  A    between atoms: _314  and  _315
REMARK  123  A    between atoms: _317  and  _319
REMARK  124  A    between atoms: _319  and  _320
REMARK  125  A    between atoms: _319  and  _322
REMARK  126  A    between atoms: _322  and  _323
REMARK  127  A    between atoms: _323  and  _324
REMARK  128  A    between atoms: _329  and  _331
REMARK  129  A    between atoms: _331  and  _332
REMARK  130  A    between atoms: _331  and  _334
REMARK  131  A    between atoms: _334  and  _335
REMARK  132  A    between atoms: _338  and  _340
REMARK  133  A    between atoms: _340  and  _341
REMARK  134  A    between atoms: _340  and  _343
REMARK  135  A    between atoms: _343  and  _344
REMARK  136  A    between atoms: _347  and  _349
REMARK  137  A    between atoms: _349  and  _350
REMARK  138  A    between atoms: _349  and  _352
REMARK  139  A    between atoms: _352  and  _353
REMARK  140  A    between atoms: _356  and  _358
REMARK  141  A    between atoms: _358  and  _359
REMARK  142  A    between atoms: _358  and  _361
REMARK  143  A    between atoms: _361  and  _362
REMARK  144  A    between atoms: _365  and  _367
REMARK  145  A    between atoms: _367  and  _368
REMARK  146  A    between atoms: _367  and  _370
REMARK  147  A    between atoms: _370  and  _371
REMARK  148  A    between atoms: _376  and  _378
REMARK  149  A    between atoms: _378  and  _379
REMARK  150  A    between atoms: _382  and  _384
REMARK  151  A    between atoms: _384  and  _385
REMARK  152  A    between atoms: _388  and  _390
REMARK  153  A    between atoms: _390  and  _391
REMARK  154  A    between atoms: _390  and  _393
REMARK  155  A    between atoms: _393  and  _394
REMARK  156  A    between atoms: _399  and  _400
REMARK  157  A    between atoms: _402  and  _404
REMARK  158  A    between atoms: _404  and  _405
REMARK  159  A    between atoms: _404  and  _407
REMARK  160  A    between atoms: _407  and  _408
REMARK  161  A    between atoms: _410  and  _412
REMARK  162  A    between atoms: _412  and  _413
REMARK  163  A    between atoms: _412  and  _415
REMARK  164  A    between atoms: _415  and  _416
REMARK  165  A    between atoms: _419  and  _421
REMARK  166  A    between atoms: _421  and  _422
REMARK  167  A    between atoms: _421  and  _424
REMARK  168  A    between atoms: _427  and  _429
REMARK  169  A    between atoms: _429  and  _430
REMARK  170  A    between atoms: _429  and  _432
REMARK  171  A    between atoms: _432  and  _433
REMARK  172  A    between atoms: _439  and  _441
REMARK  173  A    between atoms: _441  and  _442
REMARK  174  A    between atoms: _441  and  _444
REMARK  175  A    between atoms: _444  and  _445
REMARK  176  A    between atoms: _450  and  _452
REMARK  177  A    between atoms: _452  and  _453
REMARK  178  A    between atoms: _456  and  _458
REMARK  179  A    between atoms: _458  and  _459
REMARK  180  A    between atoms: _458  and  _461
REMARK  181  A    between atoms: _461  and  _462
REMARK  182  A    between atoms: _465  and  _467
REMARK  183  A    between atoms: _467  and  _468
REMARK  184  A    between atoms: _470  and  _472
REMARK  185  A    between atoms: _472  and  _473
REMARK  186  A    between atoms: _475  and  _477
REMARK  187  A    between atoms: _477  and  _478
REMARK  188  A    between atoms: _477  and  _480
REMARK  189  A    between atoms: _480  and  _481
REMARK  190  A    between atoms: _484  and  _486
REMARK  191  A    between atoms: _486  and  _487
REMARK  192  A    between atoms: _489  and  _491
REMARK  193  A    between atoms: _491  and  _492
REMARK  194  A    between atoms: _491  and  _494
REMARK  195  A    between atoms: _494  and  _495
REMARK  196  A    between atoms: _497  and  _499
REMARK  197  A    between atoms: _499  and  _500
REMARK  198  A    between atoms: _499  and  _502
REMARK  199  A    between atoms: _502  and  _503
REMARK                            x       y       z     vdW  Elec       q    Type
REMARK                         _______ _______ _______ _____ _____    ______ ____
ROOT
ATOM      1  O   HOH     1      31.989  50.564  61.188  0.00  0.00    +0.000 OA
ENDROOT
TORSDOF 0
REMARK  Name = ../refined-set-2016/4a95/4a95_pocket.pdb
REMARK  199 active torsions:
REMARK  status: ('A' for Active; 'I' for Inactive)
REMARK    1  A    between atoms: _1  and  _3
REMARK    2  A    between atoms: _3  and  _4
REMARK    3  A    between atoms: _3  and  _6
REMARK    4  A    between atoms: _6  and  _7
REMARK    5  A    between atoms: _12  and  _13
REMARK    6  A    between atoms: _15  and  _17
REMARK    7  A    between atoms: _17  and  _18
REMARK    8  A    between atoms: _17  and  _20
REMARK    9  A    between atoms: _23  and  _25
REMARK   10  A    between atoms: _25  and  _26
REMARK   11  A    between atoms: _25  and  _28
REMARK   12  A    between atoms: _28  and  _29
REMARK   13  A    between atoms: _29  and  _30
REMARK   14  A    between atoms: _33  and  _35
REMARK   15  A    between atoms: _35  and  _36
REMARK   16  A    between atoms: _35  and  _38
REMARK   17  A    between atoms: _38  and  _39
REMARK   18  A    between atoms: _42  and  _44
REMARK   19  A    between atoms: _44  and  _45
REMARK   20  A    between atoms: _44  and  _47
REMARK   21  A    between atoms: _47  and  _48
REMARK   22  A    between atoms: _51  and  _53
REMARK   23  A    between atoms: _53  and  _54
REMARK   24  A    between atoms: _53  and  _56
REMARK   25  A    between atoms: _56  and  _57
REMARK   26  A    between atoms: _60  and  _62
REMARK   27  A    between atoms: _62  and  _63
REMARK   28  A    between atoms: _62  and  _65
REMARK   29  A    between atoms: _65  and  _66
REMARK   30  A    between atoms: _71  and  _73
REMARK   31  A    between atoms: _73  and  _74
REMARK   32  A    between atoms: _73  and  _76
REMARK   33  A    between atoms: _76  and  _77
REMARK   34  A    between atoms: _80  and  _82
REMARK   35  A    between atoms: _82  and  _83
REMARK   36  A    between atoms: _82  and  _85
REMARK   37  A    between atoms: _85  and  _86
REMARK   38  A    between atoms: _92  and  _94
REMARK   39  A    between atoms: _94  and  _95
REMARK   40  A    between atoms: _94  and  _97
REMARK   41  A    between atoms: _97  and  _98
REMARK   42  A    between atoms: _98  and  _99
REMARK   43  A    between atoms: _99  and  _100
REMARK   44  A    between atoms: _109  and  _111
REMARK   45  A    between atoms: _111  and  _112
REMARK   46  A    between atoms: _111  and  _114
REMARK   47  A    between atoms: _114  and  _115
REMARK   48  A    between atoms: _121  and  _123
REMARK   49  A    between atoms: _123  and  _124
REMARK   50  A    between atoms: _123  and  _126
REMARK   51  A    between atoms: _126  and  _127
REMARK   52  A    between atoms: _132  and  _134
REMARK   53  A    between atoms: _134  and  _135
REMARK   54  A    between atoms: _138  and  _140
REMARK   55  A    between atoms: _140  and  _141
REMARK   56  A    between atoms: _143  and  _145
REMARK   57  A    between atoms: _145  and  _146
REMARK   58  A    between atoms: _145  and  _148
REMARK   59  A    between atoms: _151  and  _153
REMARK   60  A    between atoms: _153  and  _154
REMARK   61  A    between atoms: _153  and  _156
REMARK   62  A    between atoms: _156  and  _157
REMARK   63  A    between atoms: _157  and  _158
REMARK   64  A    between atoms: _158  and  _159
REMARK   65  A    between atoms: _168  and  _170
REMARK   66  A    between atoms: _170  and  _171
REMARK   67  A    between atoms: _170  and  _173
REMARK   68  A    between atoms: _173  and  _174
REMARK   69  A    between atoms: _179  and  _180
REMARK   70  A    between atoms: _182  and  _184
REMARK   71  A    between atoms: _184  and  _185
REMARK   72  A    between atoms: _184  and  _187
REMARK   73  A    between atoms: _187  and  _188
REMARK   74  A    between atoms: _193  and  _194
REMARK   75  A    between atoms: _196  and  _198
REMARK   76  A    between atoms: _198  and  _199
REMARK   77  A    between atoms: _198  and  _201
REMARK   78  A    between atoms: _201  and  _202
REMARK   79  A    between atoms: _207  and  _209
REMARK   80  A    between atoms: _209  and  _210
REMARK   81  A    between atoms: _209  and  _212
REMARK   82  A    between atoms: _212  and  _213
REMARK   83  A    between atoms: _213  and  _214
REMARK   84  A    between atoms: _214  and  _215
REMARK   85  A    between atoms: _224  and  _226
REMARK   86  A    between atoms: _226  and  _227
REMARK   87  A    between atoms: _226  and  _229
REMARK   88  A    between atoms: _229  and  _230
REMARK   89  A    between atoms: _232  and  _234
REMARK   90  A    between atoms: _234  and  _235
REMARK   91  A    between atoms: _234  and  _237
REMARK   92  A    between atoms: _237  and  _238
REMARK   93  A    between atoms: _241  and  _243
REMARK   94  A    between atoms: _243  and  _244
REMARK   95  A    between atoms: _243  and  _246
REMARK   96  A    between atoms: _246  and  _247
REMARK   97  A    between atoms: _250  and  _252
REMARK   98  A    between atoms: _252  and  _253
REMARK   99  A    between atoms: _252  and  _255
REMARK  100  A    between atoms: _255  and  _256
REMARK  101  A    between atoms: _259  and  _261
REMARK  102  A    between atoms: _261  and  _262
REMARK  103  A    between atoms: _261  and  _264
REMARK  104  A    between atoms: _264  and  _265
REMARK  105  A    between atoms: _271  and  _273
REMARK  106  A    between atoms: _273  and  _274
REMARK  107  A    between atoms: _273  and  _276
REMARK  108  A    between atoms: _276  and  _277
REMARK  109  A    between atoms: _279  and  _281
REMARK  110  A    between atoms: _281  and  _282
REMARK  111  A    between atoms: _281  and  _284
REMARK  112  A    between atoms: _284  and  _285
REMARK  113  A    between atoms: _290  and  _291
REMARK  114  A    between atoms: _293  and  _295
REMARK  115  A    between atoms: _295  and  _296
REMARK  116  A    between atoms: _295  and  _298
REMARK  117  A    between atoms: _298  and  _299
REMARK  118  A    between atoms: _303  and  _304
REMARK  119  A    between atoms: _309  and  _311
REMARK  120  A    between atoms: _311  and  _312
REMARK  121  A    between atoms: _311  and  _314
REMARK  122  A    between atoms: _314  and  _315
REMARK  123  A    between atoms: _317  and  _319
REMARK  124  A    between atoms: _319  and  _320
REMARK  125  A    between atoms: _319  and  _322
REMARK  126  A    between atoms: _322  and  _323
REMARK  127  A    between atoms: _323  and  _324
REMARK  128  A    between atoms: _329  and  _331
REMARK  129  A    between atoms: _331  and  _332
REMARK  130  A    between atoms: _331  and  _334
REMARK  131  A    between atoms: _334  and  _335
REMARK  132  A    between atoms: _338  and  _340
REMARK  133  A    between atoms: _340  and  _341
REMARK  134  A    between atoms: _340  and  _343
REMARK  135  A    between atoms: _343  and  _344
REMARK  136  A    between atoms: _347  and  _349
REMARK  137  A    between atoms: _349  and  _350
REMARK  138  A    between atoms: _349  and  _352
REMARK  139  A    between atoms: _352  and  _353
REMARK  140  A    between atoms: _356  and  _358
REMARK  141  A    between atoms: _358  and  _359
REMARK  142  A    between atoms: _358  and  _361
REMARK  143  A    between atoms: _361  and  _362
REMARK  144  A    between atoms: _365  and  _367
REMARK  145  A    between atoms: _367  and  _368
REMARK  146  A    between atoms: _367  and  _370
REMARK  147  A    between atoms: _370  and  _371
REMARK  148  A    between atoms: _376  and  _378
REMARK  149  A    between atoms: _378  and  _379
REMARK  150  A    between atoms: _382  and  _384
REMARK  151  A    between atoms: _384  and  _385
REMARK  152  A    between atoms: _388  and  _390
REMARK  153  A    between atoms: _390  and  _391
REMARK  154  A    between atoms: _390  and  _393
REMARK  155  A    between atoms: _393  and  _394
REMARK  156  A    between atoms: _399  and  _400
REMARK  157  A    between atoms: _402  and  _404
REMARK  158  A    between atoms: _404  and  _405
REMARK  159  A    between atoms: _404  and  _407
REMARK  160  A    between atoms: _407  and  _408
REMARK  161  A    between atoms: _410  and  _412
REMARK  162  A    between atoms: _412  and  _413
REMARK  163  A    between atoms: _412  and  _415
REMARK  164  A    between atoms: _415  and  _416
REMARK  165  A    between atoms: _419  and  _421
REMARK  166  A    between atoms: _421  and  _422
REMARK  167  A    between atoms: _421  and  _424
REMARK  168  A    between atoms: _427  and  _429
REMARK  169  A    between atoms: _429  and  _430
REMARK  170  A    between atoms: _429  and  _432
REMARK  171  A    between atoms: _432  and  _433
REMARK  172  A    between atoms: _439  and  _441
REMARK  173  A    between atoms: _441  and  _442
REMARK  174  A    between atoms: _441  and  _444
REMARK  175  A    between atoms: _444  and  _445
REMARK  176  A    between atoms: _450  and  _452
REMARK  177  A    between atoms: _452  and  _453
REMARK  178  A    between atoms: _456  and  _458
REMARK  179  A    between atoms: _458  and  _459
REMARK  180  A    between atoms: _458  and  _461
REMARK  181  A    between atoms: _461  and  _462
REMARK  182  A    between atoms: _465  and  _467
REMARK  183  A    between atoms: _467  and  _468
REMARK  184  A    between atoms: _470  and  _472
REMARK  185  A    between atoms: _472  and  _473
REMARK  186  A    between atoms: _475  and  _477
REMARK  187  A    between atoms: _477  and  _478
REMARK  188  A    between atoms: _477  and  _480
REMARK  189  A    between atoms: _480  and  _481
REMARK  190  A    between atoms: _484  and  _486
REMARK  191  A    between atoms: _486  and  _487
REMARK  192  A    between atoms: _489  and  _491
REMARK  193  A    between atoms: _491  and  _492
REMARK  194  A    between atoms: _491  and  _494
REMARK  195  A    between atoms: _494  and  _495
REMARK  196  A    between atoms: _497  and  _499
REMARK  197  A    between atoms: _499  and  _500
REMARK  198  A    between atoms: _499  and  _502
REMARK  199  A    between atoms: _502  and  _503
REMARK                            x       y       z     vdW  Elec       q    Type
REMARK                         _______ _______ _______ _____ _____    ______ ____
ROOT
ATOM      1  O   HOH     1      25.631  44.968  59.290  0.00  0.00    +0.000 OA
ENDROOT
TORSDOF 0
REMARK  Name = ../refined-set-2016/4a95/4a95_pocket.pdb
REMARK  199 active torsions:
REMARK  status: ('A' for Active; 'I' for Inactive)
REMARK    1  A    between atoms: _1  and  _3
REMARK    2  A    between atoms: _3  and  _4
REMARK    3  A    between atoms: _3  and  _6
REMARK    4  A    between atoms: _6  and  _7
REMARK    5  A    between atoms: _12  and  _13
REMARK    6  A    between atoms: _15  and  _17
REMARK    7  A    between atoms: _17  and  _18
REMARK    8  A    between atoms: _17  and  _20
REMARK    9  A    between atoms: _23  and  _25
REMARK   10  A    between atoms: _25  and  _26
REMARK   11  A    between atoms: _25  and  _28
REMARK   12  A    between atoms: _28  and  _29
REMARK   13  A    between atoms: _29  and  _30
REMARK   14  A    between atoms: _33  and  _35
REMARK   15  A    between atoms: _35  and  _36
REMARK   16  A    between atoms: _35  and  _38
REMARK   17  A    between atoms: _38  and  _39
REMARK   18  A    between atoms: _42  and  _44
REMARK   19  A    between atoms: _44  and  _45
REMARK   20  A    between atoms: _44  and  _47
REMARK   21  A    between atoms: _47  and  _48
REMARK   22  A    between atoms: _51  and  _53
REMARK   23  A    between atoms: _53  and  _54
REMARK   24  A    between atoms: _53  and  _56
REMARK   25  A    between atoms: _56  and  _57
REMARK   26  A    between atoms: _60  and  _62
REMARK   27  A    between atoms: _62  and  _63
REMARK   28  A    between atoms: _62  and  _65
REMARK   29  A    between atoms: _65  and  _66
REMARK   30  A    between atoms: _71  and  _73
REMARK   31  A    between atoms: _73  and  _74
REMARK   32  A    between atoms: _73  and  _76
REMARK   33  A    between atoms: _76  and  _77
REMARK   34  A    between atoms: _80  and  _82
REMARK   35  A    between atoms: _82  and  _83
REMARK   36  A    between atoms: _82  and  _85
REMARK   37  A    between atoms: _85  and  _86
REMARK   38  A    between atoms: _92  and  _94
REMARK   39  A    between atoms: _94  and  _95
REMARK   40  A    between atoms: _94  and  _97
REMARK   41  A    between atoms: _97  and  _98
REMARK   42  A    between atoms: _98  and  _99
REMARK   43  A    between atoms: _99  and  _100
REMARK   44  A    between atoms: _109  and  _111
REMARK   45  A    between atoms: _111  and  _112
REMARK   46  A    between atoms: _111  and  _114
REMARK   47  A    between atoms: _114  and  _115
REMARK   48  A    between atoms: _121  and  _123
REMARK   49  A    between atoms: _123  and  _124
REMARK   50  A    between atoms: _123  and  _126
REMARK   51  A    between atoms: _126  and  _127
REMARK   52  A    between atoms: _132  and  _134
REMARK   53  A    between atoms: _134  and  _135
REMARK   54  A    between atoms: _138  and  _140
REMARK   55  A    between atoms: _140  and  _141
REMARK   56  A    between atoms: _143  and  _145
REMARK   57  A    between atoms: _145  and  _146
REMARK   58  A    between atoms: _145  and  _148
REMARK   59  A    between atoms: _151  and  _153
REMARK   60  A    between atoms: _153  and  _154
REMARK   61  A    between atoms: _153  and  _156
REMARK   62  A    between atoms: _156  and  _157
REMARK   63  A    between atoms: _157  and  _158
REMARK   64  A    between atoms: _158  and  _159
REMARK   65  A    between atoms: _168  and  _170
REMARK   66  A    between atoms: _170  and  _171
REMARK   67  A    between atoms: _170  and  _173
REMARK   68  A    between atoms: _173  and  _174
REMARK   69  A    between atoms: _179  and  _180
REMARK   70  A    between atoms: _182  and  _184
REMARK   71  A    between atoms: _184  and  _185
REMARK   72  A    between atoms: _184  and  _187
REMARK   73  A    between atoms: _187  and  _188
REMARK   74  A    between atoms: _193  and  _194
REMARK   75  A    between atoms: _196  and  _198
REMARK   76  A    between atoms: _198  and  _199
REMARK   77  A    between atoms: _198  and  _201
REMARK   78  A    between atoms: _201  and  _202
REMARK   79  A    between atoms: _207  and  _209
REMARK   80  A    between atoms: _209  and  _210
REMARK   81  A    between atoms: _209  and  _212
REMARK   82  A    between atoms: _212  and  _213
REMARK   83  A    between atoms: _213  and  _214
REMARK   84  A    between atoms: _214  and  _215
REMARK   85  A    between atoms: _224  and  _226
REMARK   86  A    between atoms: _226  and  _227
REMARK   87  A    between atoms: _226  and  _229
REMARK   88  A    between atoms: _229  and  _230
REMARK   89  A    between atoms: _232  and  _234
REMARK   90  A    between atoms: _234  and  _235
REMARK   91  A    between atoms: _234  and  _237
REMARK   92  A    between atoms: _237  and  _238
REMARK   93  A    between atoms: _241  and  _243
REMARK   94  A    between atoms: _243  and  _244
REMARK   95  A    between atoms: _243  and  _246
REMARK   96  A    between atoms: _246  and  _247
REMARK   97  A    between atoms: _250  and  _252
REMARK   98  A    between atoms: _252  and  _253
REMARK   99  A    between atoms: _252  and  _255
REMARK  100  A    between atoms: _255  and  _256
REMARK  101  A    between atoms: _259  and  _261
REMARK  102  A    between atoms: _261  and  _262
REMARK  103  A    between atoms: _261  and  _264
REMARK  104  A    between atoms: _264  and  _265
REMARK  105  A    between atoms: _271  and  _273
REMARK  106  A    between atoms: _273  and  _274
REMARK  107  A    between atoms: _273  and  _276
REMARK  108  A    between atoms: _276  and  _277
REMARK  109  A    between atoms: _279  and  _281
REMARK  110  A    between atoms: _281  and  _282
REMARK  111  A    between atoms: _281  and  _284
REMARK  112  A    between atoms: _284  and  _285
REMARK  113  A    between atoms: _290  and  _291
REMARK  114  A    between atoms: _293  and  _295
REMARK  115  A    between atoms: _295  and  _296
REMARK  116  A    between atoms: _295  and  _298
REMARK  117  A    between atoms: _298  and  _299
REMARK  118  A    between atoms: _303  and  _304
REMARK  119  A    between atoms: _309  and  _311
REMARK  120  A    between atoms: _311  and  _312
REMARK  121  A    between atoms: _311  and  _314
REMARK  122  A    between atoms: _314  and  _315
REMARK  123  A    between atoms: _317  and  _319
REMARK  124  A    between atoms: _319  and  _320
REMARK  125  A    between atoms: _319  and  _322
REMARK  126  A    between atoms: _322  and  _323
REMARK  127  A    between atoms: _323  and  _324
REMARK  128  A    between atoms: _329  and  _331
REMARK  129  A    between atoms: _331  and  _332
REMARK  130  A    between atoms: _331  and  _334
REMARK  131  A    between atoms: _334  and  _335
REMARK  132  A    between atoms: _338  and  _340
REMARK  133  A    between atoms: _340  and  _341
REMARK  134  A    between atoms: _340  and  _343
REMARK  135  A    between atoms: _343  and  _344
REMARK  136  A    between atoms: _347  and  _349
REMARK  137  A    between atoms: _349  and  _350
REMARK  138  A    between atoms: _349  and  _352
REMARK  139  A    between atoms: _352  and  _353
REMARK  140  A    between atoms: _356  and  _358
REMARK  141  A    between atoms: _358  and  _359
REMARK  142  A    between atoms: _358  and  _361
REMARK  143  A    between atoms: _361  and  _362
REMARK  144  A    between atoms: _365  and  _367
REMARK  145  A    between atoms: _367  and  _368
REMARK  146  A    between atoms: _367  and  _370
REMARK  147  A    between atoms: _370  and  _371
REMARK  148  A    between atoms: _376  and  _378
REMARK  149  A    between atoms: _378  and  _379
REMARK  150  A    between atoms: _382  and  _384
REMARK  151  A    between atoms: _384  and  _385
REMARK  152  A    between atoms: _388  and  _390
REMARK  153  A    between atoms: _390  and  _391
REMARK  154  A    between atoms: _390  and  _393
REMARK  155  A    between atoms: _393  and  _394
REMARK  156  A    between atoms: _399  and  _400
REMARK  157  A    between atoms: _402  and  _404
REMARK  158  A    between atoms: _404  and  _405
REMARK  159  A    between atoms: _404  and  _407
REMARK  160  A    between atoms: _407  and  _408
REMARK  161  A    between atoms: _410  and  _412
REMARK  162  A    between atoms: _412  and  _413
REMARK  163  A    between atoms: _412  and  _415
REMARK  164  A    between atoms: _415  and  _416
REMARK  165  A    between atoms: _419  and  _421
REMARK  166  A    between atoms: _421  and  _422
REMARK  167  A    between atoms: _421  and  _424
REMARK  168  A    between atoms: _427  and  _429
REMARK  169  A    between atoms: _429  and  _430
REMARK  170  A    between atoms: _429  and  _432
REMARK  171  A    between atoms: _432  and  _433
REMARK  172  A    between atoms: _439  and  _441
REMARK  173  A    between atoms: _441  and  _442
REMARK  174  A    between atoms: _441  and  _444
REMARK  175  A    between atoms: _444  and  _445
REMARK  176  A    between atoms: _450  and  _452
REMARK  177  A    between atoms: _452  and  _453
REMARK  178  A    between atoms: _456  and  _458
REMARK  179  A    between atoms: _458  and  _459
REMARK  180  A    between atoms: _458  and  _461
REMARK  181  A    between atoms: _461  and  _462
REMARK  182  A    between atoms: _465  and  _467
REMARK  183  A    between atoms: _467  and  _468
REMARK  184  A    between atoms: _470  and  _472
REMARK  185  A    between atoms: _472  and  _473
REMARK  186  A    between atoms: _475  and  _477
REMARK  187  A    between atoms: _477  and  _478
REMARK  188  A    between atoms: _477  and  _480
REMARK  189  A    between atoms: _480  and  _481
REMARK  190  A    between atoms: _484  and  _486
REMARK  191  A    between atoms: _486  and  _487
REMARK  192  A    between atoms: _489  and  _491
REMARK  193  A    between atoms: _491  and  _492
REMARK  194  A    between atoms: _491  and  _494
REMARK  195  A    between atoms: _494  and  _495
REMARK  196  A    between atoms: _497  and  _499
REMARK  197  A    between atoms: _499  and  _500
REMARK  198  A    between atoms: _499  and  _502
REMARK  199  A    between atoms: _502  and  _503
REMARK                            x       y       z     vdW  Elec       q    Type
REMARK                         _______ _______ _______ _____ _____    ______ ____
ROOT
ATOM      1  O   HOH     1      29.683  43.337  65.004  0.00  0.00    +0.000 OA
ENDROOT
TORSDOF 0
REMARK  Name = ../refined-set-2016/4a95/4a95_pocket.pdb
REMARK  199 active torsions:
REMARK  status: ('A' for Active; 'I' for Inactive)
REMARK    1  A    between atoms: _1  and  _3
REMARK    2  A    between atoms: _3  and  _4
REMARK    3  A    between atoms: _3  and  _6
REMARK    4  A    between atoms: _6  and  _7
REMARK    5  A    between atoms: _12  and  _13
REMARK    6  A    between atoms: _15  and  _17
REMARK    7  A    between atoms: _17  and  _18
REMARK    8  A    between atoms: _17  and  _20
REMARK    9  A    between atoms: _23  and  _25
REMARK   10  A    between atoms: _25  and  _26
REMARK   11  A    between atoms: _25  and  _28
REMARK   12  A    between atoms: _28  and  _29
REMARK   13  A    between atoms: _29  and  _30
REMARK   14  A    between atoms: _33  and  _35
REMARK   15  A    between atoms: _35  and  _36
REMARK   16  A    between atoms: _35  and  _38
REMARK   17  A    between atoms: _38  and  _39
REMARK   18  A    between atoms: _42  and  _44
REMARK   19  A    between atoms: _44  and  _45
REMARK   20  A    between atoms: _44  and  _47
REMARK   21  A    between atoms: _47  and  _48
REMARK   22  A    between atoms: _51  and  _53
REMARK   23  A    between atoms: _53  and  _54
REMARK   24  A    between atoms: _53  and  _56
REMARK   25  A    between atoms: _56  and  _57
REMARK   26  A    between atoms: _60  and  _62
REMARK   27  A    between atoms: _62  and  _63
REMARK   28  A    between atoms: _62  and  _65
REMARK   29  A    between atoms: _65  and  _66
REMARK   30  A    between atoms: _71  and  _73
REMARK   31  A    between atoms: _73  and  _74
REMARK   32  A    between atoms: _73  and  _76
REMARK   33  A    between atoms: _76  and  _77
REMARK   34  A    between atoms: _80  and  _82
REMARK   35  A    between atoms: _82  and  _83
REMARK   36  A    between atoms: _82  and  _85
REMARK   37  A    between atoms: _85  and  _86
REMARK   38  A    between atoms: _92  and  _94
REMARK   39  A    between atoms: _94  and  _95
REMARK   40  A    between atoms: _94  and  _97
REMARK   41  A    between atoms: _97  and  _98
REMARK   42  A    between atoms: _98  and  _99
REMARK   43  A    between atoms: _99  and  _100
REMARK   44  A    between atoms: _109  and  _111
REMARK   45  A    between atoms: _111  and  _112
REMARK   46  A    between atoms: _111  and  _114
REMARK   47  A    between atoms: _114  and  _115
REMARK   48  A    between atoms: _121  and  _123
REMARK   49  A    between atoms: _123  and  _124
REMARK   50  A    between atoms: _123  and  _126
REMARK   51  A    between atoms: _126  and  _127
REMARK   52  A    between atoms: _132  and  _134
REMARK   53  A    between atoms: _134  and  _135
REMARK   54  A    between atoms: _138  and  _140
REMARK   55  A    between atoms: _140  and  _141
REMARK   56  A    between atoms: _143  and  _145
REMARK   57  A    between atoms: _145  and  _146
REMARK   58  A    between atoms: _145  and  _148
REMARK   59  A    between atoms: _151  and  _153
REMARK   60  A    between atoms: _153  and  _154
REMARK   61  A    between atoms: _153  and  _156
REMARK   62  A    between atoms: _156  and  _157
REMARK   63  A    between atoms: _157  and  _158
REMARK   64  A    between atoms: _158  and  _159
REMARK   65  A    between atoms: _168  and  _170
REMARK   66  A    between atoms: _170  and  _171
REMARK   67  A    between atoms: _170  and  _173
REMARK   68  A    between atoms: _173  and  _174
REMARK   69  A    between atoms: _179  and  _180
REMARK   70  A    between atoms: _182  and  _184
REMARK   71  A    between atoms: _184  and  _185
REMARK   72  A    between atoms: _184  and  _187
REMARK   73  A    between atoms: _187  and  _188
REMARK   74  A    between atoms: _193  and  _194
REMARK   75  A    between atoms: _196  and  _198
REMARK   76  A    between atoms: _198  and  _199
REMARK   77  A    between atoms: _198  and  _201
REMARK   78  A    between atoms: _201  and  _202
REMARK   79  A    between atoms: _207  and  _209
REMARK   80  A    between atoms: _209  and  _210
REMARK   81  A    between atoms: _209  and  _212
REMARK   82  A    between atoms: _212  and  _213
REMARK   83  A    between atoms: _213  and  _214
REMARK   84  A    between atoms: _214  and  _215
REMARK   85  A    between atoms: _224  and  _226
REMARK   86  A    between atoms: _226  and  _227
REMARK   87  A    between atoms: _226  and  _229
REMARK   88  A    between atoms: _229  and  _230
REMARK   89  A    between atoms: _232  and  _234
REMARK   90  A    between atoms: _234  and  _235
REMARK   91  A    between atoms: _234  and  _237
REMARK   92  A    between atoms: _237  and  _238
REMARK   93  A    between atoms: _241  and  _243
REMARK   94  A    between atoms: _243  and  _244
REMARK   95  A    between atoms: _243  and  _246
REMARK   96  A    between atoms: _246  and  _247
REMARK   97  A    between atoms: _250  and  _252
REMARK   98  A    between atoms: _252  and  _253
REMARK   99  A    between atoms: _252  and  _255
REMARK  100  A    between atoms: _255  and  _256
REMARK  101  A    between atoms: _259  and  _261
REMARK  102  A    between atoms: _261  and  _262
REMARK  103  A    between atoms: _261  and  _264
REMARK  104  A    between atoms: _264  and  _265
REMARK  105  A    between atoms: _271  and  _273
REMARK  106  A    between atoms: _273  and  _274
REMARK  107  A    between atoms: _273  and  _276
REMARK  108  A    between atoms: _276  and  _277
REMARK  109  A    between atoms: _279  and  _281
REMARK  110  A    between atoms: _281  and  _282
REMARK  111  A    between atoms: _281  and  _284
REMARK  112  A    between atoms: _284  and  _285
REMARK  113  A    between atoms: _290  and  _291
REMARK  114  A    between atoms: _293  and  _295
REMARK  115  A    between atoms: _295  and  _296
REMARK  116  A    between atoms: _295  and  _298
REMARK  117  A    between atoms: _298  and  _299
REMARK  118  A    between atoms: _303  and  _304
REMARK  119  A    between atoms: _309  and  _311
REMARK  120  A    between atoms: _311  and  _312
REMARK  121  A    between atoms: _311  and  _314
REMARK  122  A    between atoms: _314  and  _315
REMARK  123  A    between atoms: _317  and  _319
REMARK  124  A    between atoms: _319  and  _320
REMARK  125  A    between atoms: _319  and  _322
REMARK  126  A    between atoms: _322  and  _323
REMARK  127  A    between atoms: _323  and  _324
REMARK  128  A    between atoms: _329  and  _331
REMARK  129  A    between atoms: _331  and  _332
REMARK  130  A    between atoms: _331  and  _334
REMARK  131  A    between atoms: _334  and  _335
REMARK  132  A    between atoms: _338  and  _340
REMARK  133  A    between atoms: _340  and  _341
REMARK  134  A    between atoms: _340  and  _343
REMARK  135  A    between atoms: _343  and  _344
REMARK  136  A    between atoms: _347  and  _349
REMARK  137  A    between atoms: _349  and  _350
REMARK  138  A    between atoms: _349  and  _352
REMARK  139  A    between atoms: _352  and  _353
REMARK  140  A    between atoms: _356  and  _358
REMARK  141  A    between atoms: _358  and  _359
REMARK  142  A    between atoms: _358  and  _361
REMARK  143  A    between atoms: _361  and  _362
REMARK  144  A    between atoms: _365  and  _367
REMARK  145  A    between atoms: _367  and  _368
REMARK  146  A    between atoms: _367  and  _370
REMARK  147  A    between atoms: _370  and  _371
REMARK  148  A    between atoms: _376  and  _378
REMARK  149  A    between atoms: _378  and  _379
REMARK  150  A    between atoms: _382  and  _384
REMARK  151  A    between atoms: _384  and  _385
REMARK  152  A    between atoms: _388  and  _390
REMARK  153  A    between atoms: _390  and  _391
REMARK  154  A    between atoms: _390  and  _393
REMARK  155  A    between atoms: _393  and  _394
REMARK  156  A    between atoms: _399  and  _400
REMARK  157  A    between atoms: _402  and  _404
REMARK  158  A    between atoms: _404  and  _405
REMARK  159  A    between atoms: _404  and  _407
REMARK  160  A    between atoms: _407  and  _408
REMARK  161  A    between atoms: _410  and  _412
REMARK  162  A    between atoms: _412  and  _413
REMARK  163  A    between atoms: _412  and  _415
REMARK  164  A    between atoms: _415  and  _416
REMARK  165  A    between atoms: _419  and  _421
REMARK  166  A    between atoms: _421  and  _422
REMARK  167  A    between atoms: _421  and  _424
REMARK  168  A    between atoms: _427  and  _429
REMARK  169  A    between atoms: _429  and  _430
REMARK  170  A    between atoms: _429  and  _432
REMARK  171  A    between atoms: _432  and  _433
REMARK  172  A    between atoms: _439  and  _441
REMARK  173  A    between atoms: _441  and  _442
REMARK  174  A    between atoms: _441  and  _444
REMARK  175  A    between atoms: _444  and  _445
REMARK  176  A    between atoms: _450  and  _452
REMARK  177  A    between atoms: _452  and  _453
REMARK  178  A    between atoms: _456  and  _458
REMARK  179  A    between atoms: _458  and  _459
REMARK  180  A    between atoms: _458  and  _461
REMARK  181  A    between atoms: _461  and  _462
REMARK  182  A    between atoms: _465  and  _467
REMARK  183  A    between atoms: _467  and  _468
REMARK  184  A    between atoms: _470  and  _472
REMARK  185  A    between atoms: _472  and  _473
REMARK  186  A    between atoms: _475  and  _477
REMARK  187  A    between atoms: _477  and  _478
REMARK  188  A    between atoms: _477  and  _480
REMARK  189  A    between atoms: _480  and  _481
REMARK  190  A    between atoms: _484  and  _486
REMARK  191  A    between atoms: _486  and  _487
REMARK  192  A    between atoms: _489  and  _491
REMARK  193  A    between atoms: _491  and  _492
REMARK  194  A    between atoms: _491  and  _494
REMARK  195  A    between atoms: _494  and  _495
REMARK  196  A    between atoms: _497  and  _499
REMARK  197  A    between atoms: _499  and  _500
REMARK  198  A    between atoms: _499  and  _502
REMARK  199  A    between atoms: _502  and  _503
REMARK                            x       y       z     vdW  Elec       q    Type
REMARK                         _______ _______ _______ _____ _____    ______ ____
ROOT
ATOM      1  O   HOH     1      32.258  44.301  63.553  0.00  0.00    +0.000 OA
ENDROOT
TORSDOF 0
REMARK  Name = ../refined-set-2016/4a95/4a95_pocket.pdb
REMARK  199 active torsions:
REMARK  status: ('A' for Active; 'I' for Inactive)
REMARK    1  A    between atoms: _1  and  _3
REMARK    2  A    between atoms: _3  and  _4
REMARK    3  A    between atoms: _3  and  _6
REMARK    4  A    between atoms: _6  and  _7
REMARK    5  A    between atoms: _12  and  _13
REMARK    6  A    between atoms: _15  and  _17
REMARK    7  A    between atoms: _17  and  _18
REMARK    8  A    between atoms: _17  and  _20
REMARK    9  A    between atoms: _23  and  _25
REMARK   10  A    between atoms: _25  and  _26
REMARK   11  A    between atoms: _25  and  _28
REMARK   12  A    between atoms: _28  and  _29
REMARK   13  A    between atoms: _29  and  _30
REMARK   14  A    between atoms: _33  and  _35
REMARK   15  A    between atoms: _35  and  _36
REMARK   16  A    between atoms: _35  and  _38
REMARK   17  A    between atoms: _38  and  _39
REMARK   18  A    between atoms: _42  and  _44
REMARK   19  A    between atoms: _44  and  _45
REMARK   20  A    between atoms: _44  and  _47
REMARK   21  A    between atoms: _47  and  _48
REMARK   22  A    between atoms: _51  and  _53
REMARK   23  A    between atoms: _53  and  _54
REMARK   24  A    between atoms: _53  and  _56
REMARK   25  A    between atoms: _56  and  _57
REMARK   26  A    between atoms: _60  and  _62
REMARK   27  A    between atoms: _62  and  _63
REMARK   28  A    between atoms: _62  and  _65
REMARK   29  A    between atoms: _65  and  _66
REMARK   30  A    between atoms: _71  and  _73
REMARK   31  A    between atoms: _73  and  _74
REMARK   32  A    between atoms: _73  and  _76
REMARK   33  A    between atoms: _76  and  _77
REMARK   34  A    between atoms: _80  and  _82
REMARK   35  A    between atoms: _82  and  _83
REMARK   36  A    between atoms: _82  and  _85
REMARK   37  A    between atoms: _85  and  _86
REMARK   38  A    between atoms: _92  and  _94
REMARK   39  A    between atoms: _94  and  _95
REMARK   40  A    between atoms: _94  and  _97
REMARK   41  A    between atoms: _97  and  _98
REMARK   42  A    between atoms: _98  and  _99
REMARK   43  A    between atoms: _99  and  _100
REMARK   44  A    between atoms: _109  and  _111
REMARK   45  A    between atoms: _111  and  _112
REMARK   46  A    between atoms: _111  and  _114
REMARK   47  A    between atoms: _114  and  _115
REMARK   48  A    between atoms: _121  and  _123
REMARK   49  A    between atoms: _123  and  _124
REMARK   50  A    between atoms: _123  and  _126
REMARK   51  A    between atoms: _126  and  _127
REMARK   52  A    between atoms: _132  and  _134
REMARK   53  A    between atoms: _134  and  _135
REMARK   54  A    between atoms: _138  and  _140
REMARK   55  A    between atoms: _140  and  _141
REMARK   56  A    between atoms: _143  and  _145
REMARK   57  A    between atoms: _145  and  _146
REMARK   58  A    between atoms: _145  and  _148
REMARK   59  A    between atoms: _151  and  _153
REMARK   60  A    between atoms: _153  and  _154
REMARK   61  A    between atoms: _153  and  _156
REMARK   62  A    between atoms: _156  and  _157
REMARK   63  A    between atoms: _157  and  _158
REMARK   64  A    between atoms: _158  and  _159
REMARK   65  A    between atoms: _168  and  _170
REMARK   66  A    between atoms: _170  and  _171
REMARK   67  A    between atoms: _170  and  _173
REMARK   68  A    between atoms: _173  and  _174
REMARK   69  A    between atoms: _179  and  _180
REMARK   70  A    between atoms: _182  and  _184
REMARK   71  A    between atoms: _184  and  _185
REMARK   72  A    between atoms: _184  and  _187
REMARK   73  A    between atoms: _187  and  _188
REMARK   74  A    between atoms: _193  and  _194
REMARK   75  A    between atoms: _196  and  _198
REMARK   76  A    between atoms: _198  and  _199
REMARK   77  A    between atoms: _198  and  _201
REMARK   78  A    between atoms: _201  and  _202
REMARK   79  A    between atoms: _207  and  _209
REMARK   80  A    between atoms: _209  and  _210
REMARK   81  A    between atoms: _209  and  _212
REMARK   82  A    between atoms: _212  and  _213
REMARK   83  A    between atoms: _213  and  _214
REMARK   84  A    between atoms: _214  and  _215
REMARK   85  A    between atoms: _224  and  _226
REMARK   86  A    between atoms: _226  and  _227
REMARK   87  A    between atoms: _226  and  _229
REMARK   88  A    between atoms: _229  and  _230
REMARK   89  A    between atoms: _232  and  _234
REMARK   90  A    between atoms: _234  and  _235
REMARK   91  A    between atoms: _234  and  _237
REMARK   92  A    between atoms: _237  and  _238
REMARK   93  A    between atoms: _241  and  _243
REMARK   94  A    between atoms: _243  and  _244
REMARK   95  A    between atoms: _243  and  _246
REMARK   96  A    between atoms: _246  and  _247
REMARK   97  A    between atoms: _250  and  _252
REMARK   98  A    between atoms: _252  and  _253
REMARK   99  A    between atoms: _252  and  _255
REMARK  100  A    between atoms: _255  and  _256
REMARK  101  A    between atoms: _259  and  _261
REMARK  102  A    between atoms: _261  and  _262
REMARK  103  A    between atoms: _261  and  _264
REMARK  104  A    between atoms: _264  and  _265
REMARK  105  A    between atoms: _271  and  _273
REMARK  106  A    between atoms: _273  and  _274
REMARK  107  A    between atoms: _273  and  _276
REMARK  108  A    between atoms: _276  and  _277
REMARK  109  A    between atoms: _279  and  _281
REMARK  110  A    between atoms: _281  and  _282
REMARK  111  A    between atoms: _281  and  _284
REMARK  112  A    between atoms: _284  and  _285
REMARK  113  A    between atoms: _290  and  _291
REMARK  114  A    between atoms: _293  and  _295
REMARK  115  A    between atoms: _295  and  _296
REMARK  116  A    between atoms: _295  and  _298
REMARK  117  A    between atoms: _298  and  _299
REMARK  118  A    between atoms: _303  and  _304
REMARK  119  A    between atoms: _309  and  _311
REMARK  120  A    between atoms: _311  and  _312
REMARK  121  A    between atoms: _311  and  _314
REMARK  122  A    between atoms: _314  and  _315
REMARK  123  A    between atoms: _317  and  _319
REMARK  124  A    between atoms: _319  and  _320
REMARK  125  A    between atoms: _319  and  _322
REMARK  126  A    between atoms: _322  and  _323
REMARK  127  A    between atoms: _323  and  _324
REMARK  128  A    between atoms: _329  and  _331
REMARK  129  A    between atoms: _331  and  _332
REMARK  130  A    between atoms: _331  and  _334
REMARK  131  A    between atoms: _334  and  _335
REMARK  132  A    between atoms: _338  and  _340
REMARK  133  A    between atoms: _340  and  _341
REMARK  134  A    between atoms: _340  and  _343
REMARK  135  A    between atoms: _343  and  _344
REMARK  136  A    between atoms: _347  and  _349
REMARK  137  A    between atoms: _349  and  _350
REMARK  138  A    between atoms: _349  and  _352
REMARK  139  A    between atoms: _352  and  _353
REMARK  140  A    between atoms: _356  and  _358
REMARK  141  A    between atoms: _358  and  _359
REMARK  142  A    between atoms: _358  and  _361
REMARK  143  A    between atoms: _361  and  _362
REMARK  144  A    between atoms: _365  and  _367
REMARK  145  A    between atoms: _367  and  _368
REMARK  146  A    between atoms: _367  and  _370
REMARK  147  A    between atoms: _370  and  _371
REMARK  148  A    between atoms: _376  and  _378
REMARK  149  A    between atoms: _378  and  _379
REMARK  150  A    between atoms: _382  and  _384
REMARK  151  A    between atoms: _384  and  _385
REMARK  152  A    between atoms: _388  and  _390
REMARK  153  A    between atoms: _390  and  _391
REMARK  154  A    between atoms: _390  and  _393
REMARK  155  A    between atoms: _393  and  _394
REMARK  156  A    between atoms: _399  and  _400
REMARK  157  A    between atoms: _402  and  _404
REMARK  158  A    between atoms: _404  and  _405
REMARK  159  A    between atoms: _404  and  _407
REMARK  160  A    between atoms: _407  and  _408
REMARK  161  A    between atoms: _410  and  _412
REMARK  162  A    between atoms: _412  and  _413
REMARK  163  A    between atoms: _412  and  _415
REMARK  164  A    between atoms: _415  and  _416
REMARK  165  A    between atoms: _419  and  _421
REMARK  166  A    between atoms: _421  and  _422
REMARK  167  A    between atoms: _421  and  _424
REMARK  168  A    between atoms: _427  and  _429
REMARK  169  A    between atoms: _429  and  _430
REMARK  170  A    between atoms: _429  and  _432
REMARK  171  A    between atoms: _432  and  _433
REMARK  172  A    between atoms: _439  and  _441
REMARK  173  A    between atoms: _441  and  _442
REMARK  174  A    between atoms: _441  and  _444
REMARK  175  A    between atoms: _444  and  _445
REMARK  176  A    between atoms: _450  and  _452
REMARK  177  A    between atoms: _452  and  _453
REMARK  178  A    between atoms: _456  and  _458
REMARK  179  A    between atoms: _458  and  _459
REMARK  180  A    between atoms: _458  and  _461
REMARK  181  A    between atoms: _461  and  _462
REMARK  182  A    between atoms: _465  and  _467
REMARK  183  A    between atoms: _467  and  _468
REMARK  184  A    between atoms: _470  and  _472
REMARK  185  A    between atoms: _472  and  _473
REMARK  186  A    between atoms: _475  and  _477
REMARK  187  A    between atoms: _477  and  _478
REMARK  188  A    between atoms: _477  and  _480
REMARK  189  A    between atoms: _480  and  _481
REMARK  190  A    between atoms: _484  and  _486
REMARK  191  A    between atoms: _486  and  _487
REMARK  192  A    between atoms: _489  and  _491
REMARK  193  A    between atoms: _491  and  _492
REMARK  194  A    between atoms: _491  and  _494
REMARK  195  A    between atoms: _494  and  _495
REMARK  196  A    between atoms: _497  and  _499
REMARK  197  A    between atoms: _499  and  _500
REMARK  198  A    between atoms: _499  and  _502
REMARK  199  A    between atoms: _502  and  _503
REMARK                            x       y       z     vdW  Elec       q    Type
REMARK                         _______ _______ _______ _____ _____    ______ ____
ROOT
ATOM      1  O   HOH     1      29.016  43.221  57.281  0.00  0.00    +0.000 OA
ENDROOT
TORSDOF 0
REMARK  Name = ../refined-set-2016/4a95/4a95_pocket.pdb
REMARK  199 active torsions:
REMARK  status: ('A' for Active; 'I' for Inactive)
REMARK    1  A    between atoms: _1  and  _3
REMARK    2  A    between atoms: _3  and  _4
REMARK    3  A    between atoms: _3  and  _6
REMARK    4  A    between atoms: _6  and  _7
REMARK    5  A    between atoms: _12  and  _13
REMARK    6  A    between atoms: _15  and  _17
REMARK    7  A    between atoms: _17  and  _18
REMARK    8  A    between atoms: _17  and  _20
REMARK    9  A    between atoms: _23  and  _25
REMARK   10  A    between atoms: _25  and  _26
REMARK   11  A    between atoms: _25  and  _28
REMARK   12  A    between atoms: _28  and  _29
REMARK   13  A    between atoms: _29  and  _30
REMARK   14  A    between atoms: _33  and  _35
REMARK   15  A    between atoms: _35  and  _36
REMARK   16  A    between atoms: _35  and  _38
REMARK   17  A    between atoms: _38  and  _39
REMARK   18  A    between atoms: _42  and  _44
REMARK   19  A    between atoms: _44  and  _45
REMARK   20  A    between atoms: _44  and  _47
REMARK   21  A    between atoms: _47  and  _48
REMARK   22  A    between atoms: _51  and  _53
REMARK   23  A    between atoms: _53  and  _54
REMARK   24  A    between atoms: _53  and  _56
REMARK   25  A    between atoms: _56  and  _57
REMARK   26  A    between atoms: _60  and  _62
REMARK   27  A    between atoms: _62  and  _63
REMARK   28  A    between atoms: _62  and  _65
REMARK   29  A    between atoms: _65  and  _66
REMARK   30  A    between atoms: _71  and  _73
REMARK   31  A    between atoms: _73  and  _74
REMARK   32  A    between atoms: _73  and  _76
REMARK   33  A    between atoms: _76  and  _77
REMARK   34  A    between atoms: _80  and  _82
REMARK   35  A    between atoms: _82  and  _83
REMARK   36  A    between atoms: _82  and  _85
REMARK   37  A    between atoms: _85  and  _86
REMARK   38  A    between atoms: _92  and  _94
REMARK   39  A    between atoms: _94  and  _95
REMARK   40  A    between atoms: _94  and  _97
REMARK   41  A    between atoms: _97  and  _98
REMARK   42  A    between atoms: _98  and  _99
REMARK   43  A    between atoms: _99  and  _100
REMARK   44  A    between atoms: _109  and  _111
REMARK   45  A    between atoms: _111  and  _112
REMARK   46  A    between atoms: _111  and  _114
REMARK   47  A    between atoms: _114  and  _115
REMARK   48  A    between atoms: _121  and  _123
REMARK   49  A    between atoms: _123  and  _124
REMARK   50  A    between atoms: _123  and  _126
REMARK   51  A    between atoms: _126  and  _127
REMARK   52  A    between atoms: _132  and  _134
REMARK   53  A    between atoms: _134  and  _135
REMARK   54  A    between atoms: _138  and  _140
REMARK   55  A    between atoms: _140  and  _141
REMARK   56  A    between atoms: _143  and  _145
REMARK   57  A    between atoms: _145  and  _146
REMARK   58  A    between atoms: _145  and  _148
REMARK   59  A    between atoms: _151  and  _153
REMARK   60  A    between atoms: _153  and  _154
REMARK   61  A    between atoms: _153  and  _156
REMARK   62  A    between atoms: _156  and  _157
REMARK   63  A    between atoms: _157  and  _158
REMARK   64  A    between atoms: _158  and  _159
REMARK   65  A    between atoms: _168  and  _170
REMARK   66  A    between atoms: _170  and  _171
REMARK   67  A    between atoms: _170  and  _173
REMARK   68  A    between atoms: _173  and  _174
REMARK   69  A    between atoms: _179  and  _180
REMARK   70  A    between atoms: _182  and  _184
REMARK   71  A    between atoms: _184  and  _185
REMARK   72  A    between atoms: _184  and  _187
REMARK   73  A    between atoms: _187  and  _188
REMARK   74  A    between atoms: _193  and  _194
REMARK   75  A    between atoms: _196  and  _198
REMARK   76  A    between atoms: _198  and  _199
REMARK   77  A    between atoms: _198  and  _201
REMARK   78  A    between atoms: _201  and  _202
REMARK   79  A    between atoms: _207  and  _209
REMARK   80  A    between atoms: _209  and  _210
REMARK   81  A    between atoms: _209  and  _212
REMARK   82  A    between atoms: _212  and  _213
REMARK   83  A    between atoms: _213  and  _214
REMARK   84  A    between atoms: _214  and  _215
REMARK   85  A    between atoms: _224  and  _226
REMARK   86  A    between atoms: _226  and  _227
REMARK   87  A    between atoms: _226  and  _229
REMARK   88  A    between atoms: _229  and  _230
REMARK   89  A    between atoms: _232  and  _234
REMARK   90  A    between atoms: _234  and  _235
REMARK   91  A    between atoms: _234  and  _237
REMARK   92  A    between atoms: _237  and  _238
REMARK   93  A    between atoms: _241  and  _243
REMARK   94  A    between atoms: _243  and  _244
REMARK   95  A    between atoms: _243  and  _246
REMARK   96  A    between atoms: _246  and  _247
REMARK   97  A    between atoms: _250  and  _252
REMARK   98  A    between atoms: _252  and  _253
REMARK   99  A    between atoms: _252  and  _255
REMARK  100  A    between atoms: _255  and  _256
REMARK  101  A    between atoms: _259  and  _261
REMARK  102  A    between atoms: _261  and  _262
REMARK  103  A    between atoms: _261  and  _264
REMARK  104  A    between atoms: _264  and  _265
REMARK  105  A    between atoms: _271  and  _273
REMARK  106  A    between atoms: _273  and  _274
REMARK  107  A    between atoms: _273  and  _276
REMARK  108  A    between atoms: _276  and  _277
REMARK  109  A    between atoms: _279  and  _281
REMARK  110  A    between atoms: _281  and  _282
REMARK  111  A    between atoms: _281  and  _284
REMARK  112  A    between atoms: _284  and  _285
REMARK  113  A    between atoms: _290  and  _291
REMARK  114  A    between atoms: _293  and  _295
REMARK  115  A    between atoms: _295  and  _296
REMARK  116  A    between atoms: _295  and  _298
REMARK  117  A    between atoms: _298  and  _299
REMARK  118  A    between atoms: _303  and  _304
REMARK  119  A    between atoms: _309  and  _311
REMARK  120  A    between atoms: _311  and  _312
REMARK  121  A    between atoms: _311  and  _314
REMARK  122  A    between atoms: _314  and  _315
REMARK  123  A    between atoms: _317  and  _319
REMARK  124  A    between atoms: _319  and  _320
REMARK  125  A    between atoms: _319  and  _322
REMARK  126  A    between atoms: _322  and  _323
REMARK  127  A    between atoms: _323  and  _324
REMARK  128  A    between atoms: _329  and  _331
REMARK  129  A    between atoms: _331  and  _332
REMARK  130  A    between atoms: _331  and  _334
REMARK  131  A    between atoms: _334  and  _335
REMARK  132  A    between atoms: _338  and  _340
REMARK  133  A    between atoms: _340  and  _341
REMARK  134  A    between atoms: _340  and  _343
REMARK  135  A    between atoms: _343  and  _344
REMARK  136  A    between atoms: _347  and  _349
REMARK  137  A    between atoms: _349  and  _350
REMARK  138  A    between atoms: _349  and  _352
REMARK  139  A    between atoms: _352  and  _353
REMARK  140  A    between atoms: _356  and  _358
REMARK  141  A    between atoms: _358  and  _359
REMARK  142  A    between atoms: _358  and  _361
REMARK  143  A    between atoms: _361  and  _362
REMARK  144  A    between atoms: _365  and  _367
REMARK  145  A    between atoms: _367  and  _368
REMARK  146  A    between atoms: _367  and  _370
REMARK  147  A    between atoms: _370  and  _371
REMARK  148  A    between atoms: _376  and  _378
REMARK  149  A    between atoms: _378  and  _379
REMARK  150  A    between atoms: _382  and  _384
REMARK  151  A    between atoms: _384  and  _385
REMARK  152  A    between atoms: _388  and  _390
REMARK  153  A    between atoms: _390  and  _391
REMARK  154  A    between atoms: _390  and  _393
REMARK  155  A    between atoms: _393  and  _394
REMARK  156  A    between atoms: _399  and  _400
REMARK  157  A    between atoms: _402  and  _404
REMARK  158  A    between atoms: _404  and  _405
REMARK  159  A    between atoms: _404  and  _407
REMARK  160  A    between atoms: _407  and  _408
REMARK  161  A    between atoms: _410  and  _412
REMARK  162  A    between atoms: _412  and  _413
REMARK  163  A    between atoms: _412  and  _415
REMARK  164  A    between atoms: _415  and  _416
REMARK  165  A    between atoms: _419  and  _421
REMARK  166  A    between atoms: _421  and  _422
REMARK  167  A    between atoms: _421  and  _424
REMARK  168  A    between atoms: _427  and  _429
REMARK  169  A    between atoms: _429  and  _430
REMARK  170  A    between atoms: _429  and  _432
REMARK  171  A    between atoms: _432  and  _433
REMARK  172  A    between atoms: _439  and  _441
REMARK  173  A    between atoms: _441  and  _442
REMARK  174  A    between atoms: _441  and  _444
REMARK  175  A    between atoms: _444  and  _445
REMARK  176  A    between atoms: _450  and  _452
REMARK  177  A    between atoms: _452  and  _453
REMARK  178  A    between atoms: _456  and  _458
REMARK  179  A    between atoms: _458  and  _459
REMARK  180  A    between atoms: _458  and  _461
REMARK  181  A    between atoms: _461  and  _462
REMARK  182  A    between atoms: _465  and  _467
REMARK  183  A    between atoms: _467  and  _468
REMARK  184  A    between atoms: _470  and  _472
REMARK  185  A    between atoms: _472  and  _473
REMARK  186  A    between atoms: _475  and  _477
REMARK  187  A    between atoms: _477  and  _478
REMARK  188  A    between atoms: _477  and  _480
REMARK  189  A    between atoms: _480  and  _481
REMARK  190  A    between atoms: _484  and  _486
REMARK  191  A    between atoms: _486  and  _487
REMARK  192  A    between atoms: _489  and  _491
REMARK  193  A    between atoms: _491  and  _492
REMARK  194  A    between atoms: _491  and  _494
REMARK  195  A    between atoms: _494  and  _495
REMARK  196  A    between atoms: _497  and  _499
REMARK  197  A    between atoms: _499  and  _500
REMARK  198  A    between atoms: _499  and  _502
REMARK  199  A    between atoms: _502  and  _503
REMARK                            x       y       z     vdW  Elec       q    Type
REMARK                         _______ _______ _______ _____ _____    ______ ____
ROOT
ATOM      1  O   HOH     1      22.210  41.922  55.168  0.00  0.00    +0.000 OA
ENDROOT
TORSDOF 0
REMARK  Name = ../refined-set-2016/4a95/4a95_pocket.pdb
REMARK  199 active torsions:
REMARK  status: ('A' for Active; 'I' for Inactive)
REMARK    1  A    between atoms: _1  and  _3
REMARK    2  A    between atoms: _3  and  _4
REMARK    3  A    between atoms: _3  and  _6
REMARK    4  A    between atoms: _6  and  _7
REMARK    5  A    between atoms: _12  and  _13
REMARK    6  A    between atoms: _15  and  _17
REMARK    7  A    between atoms: _17  and  _18
REMARK    8  A    between atoms: _17  and  _20
REMARK    9  A    between atoms: _23  and  _25
REMARK   10  A    between atoms: _25  and  _26
REMARK   11  A    between atoms: _25  and  _28
REMARK   12  A    between atoms: _28  and  _29
REMARK   13  A    between atoms: _29  and  _30
REMARK   14  A    between atoms: _33  and  _35
REMARK   15  A    between atoms: _35  and  _36
REMARK   16  A    between atoms: _35  and  _38
REMARK   17  A    between atoms: _38  and  _39
REMARK   18  A    between atoms: _42  and  _44
REMARK   19  A    between atoms: _44  and  _45
REMARK   20  A    between atoms: _44  and  _47
REMARK   21  A    between atoms: _47  and  _48
REMARK   22  A    between atoms: _51  and  _53
REMARK   23  A    between atoms: _53  and  _54
REMARK   24  A    between atoms: _53  and  _56
REMARK   25  A    between atoms: _56  and  _57
REMARK   26  A    between atoms: _60  and  _62
REMARK   27  A    between atoms: _62  and  _63
REMARK   28  A    between atoms: _62  and  _65
REMARK   29  A    between atoms: _65  and  _66
REMARK   30  A    between atoms: _71  and  _73
REMARK   31  A    between atoms: _73  and  _74
REMARK   32  A    between atoms: _73  and  _76
REMARK   33  A    between atoms: _76  and  _77
REMARK   34  A    between atoms: _80  and  _82
REMARK   35  A    between atoms: _82  and  _83
REMARK   36  A    between atoms: _82  and  _85
REMARK   37  A    between atoms: _85  and  _86
REMARK   38  A    between atoms: _92  and  _94
REMARK   39  A    between atoms: _94  and  _95
REMARK   40  A    between atoms: _94  and  _97
REMARK   41  A    between atoms: _97  and  _98
REMARK   42  A    between atoms: _98  and  _99
REMARK   43  A    between atoms: _99  and  _100
REMARK   44  A    between atoms: _109  and  _111
REMARK   45  A    between atoms: _111  and  _112
REMARK   46  A    between atoms: _111  and  _114
REMARK   47  A    between atoms: _114  and  _115
REMARK   48  A    between atoms: _121  and  _123
REMARK   49  A    between atoms: _123  and  _124
REMARK   50  A    between atoms: _123  and  _126
REMARK   51  A    between atoms: _126  and  _127
REMARK   52  A    between atoms: _132  and  _134
REMARK   53  A    between atoms: _134  and  _135
REMARK   54  A    between atoms: _138  and  _140
REMARK   55  A    between atoms: _140  and  _141
REMARK   56  A    between atoms: _143  and  _145
REMARK   57  A    between atoms: _145  and  _146
REMARK   58  A    between atoms: _145  and  _148
REMARK   59  A    between atoms: _151  and  _153
REMARK   60  A    between atoms: _153  and  _154
REMARK   61  A    between atoms: _153  and  _156
REMARK   62  A    between atoms: _156  and  _157
REMARK   63  A    between atoms: _157  and  _158
REMARK   64  A    between atoms: _158  and  _159
REMARK   65  A    between atoms: _168  and  _170
REMARK   66  A    between atoms: _170  and  _171
REMARK   67  A    between atoms: _170  and  _173
REMARK   68  A    between atoms: _173  and  _174
REMARK   69  A    between atoms: _179  and  _180
REMARK   70  A    between atoms: _182  and  _184
REMARK   71  A    between atoms: _184  and  _185
REMARK   72  A    between atoms: _184  and  _187
REMARK   73  A    between atoms: _187  and  _188
REMARK   74  A    between atoms: _193  and  _194
REMARK   75  A    between atoms: _196  and  _198
REMARK   76  A    between atoms: _198  and  _199
REMARK   77  A    between atoms: _198  and  _201
REMARK   78  A    between atoms: _201  and  _202
REMARK   79  A    between atoms: _207  and  _209
REMARK   80  A    between atoms: _209  and  _210
REMARK   81  A    between atoms: _209  and  _212
REMARK   82  A    between atoms: _212  and  _213
REMARK   83  A    between atoms: _213  and  _214
REMARK   84  A    between atoms: _214  and  _215
REMARK   85  A    between atoms: _224  and  _226
REMARK   86  A    between atoms: _226  and  _227
REMARK   87  A    between atoms: _226  and  _229
REMARK   88  A    between atoms: _229  and  _230
REMARK   89  A    between atoms: _232  and  _234
REMARK   90  A    between atoms: _234  and  _235
REMARK   91  A    between atoms: _234  and  _237
REMARK   92  A    between atoms: _237  and  _238
REMARK   93  A    between atoms: _241  and  _243
REMARK   94  A    between atoms: _243  and  _244
REMARK   95  A    between atoms: _243  and  _246
REMARK   96  A    between atoms: _246  and  _247
REMARK   97  A    between atoms: _250  and  _252
REMARK   98  A    between atoms: _252  and  _253
REMARK   99  A    between atoms: _252  and  _255
REMARK  100  A    between atoms: _255  and  _256
REMARK  101  A    between atoms: _259  and  _261
REMARK  102  A    between atoms: _261  and  _262
REMARK  103  A    between atoms: _261  and  _264
REMARK  104  A    between atoms: _264  and  _265
REMARK  105  A    between atoms: _271  and  _273
REMARK  106  A    between atoms: _273  and  _274
REMARK  107  A    between atoms: _273  and  _276
REMARK  108  A    between atoms: _276  and  _277
REMARK  109  A    between atoms: _279  and  _281
REMARK  110  A    between atoms: _281  and  _282
REMARK  111  A    between atoms: _281  and  _284
REMARK  112  A    between atoms: _284  and  _285
REMARK  113  A    between atoms: _290  and  _291
REMARK  114  A    between atoms: _293  and  _295
REMARK  115  A    between atoms: _295  and  _296
REMARK  116  A    between atoms: _295  and  _298
REMARK  117  A    between atoms: _298  and  _299
REMARK  118  A    between atoms: _303  and  _304
REMARK  119  A    between atoms: _309  and  _311
REMARK  120  A    between atoms: _311  and  _312
REMARK  121  A    between atoms: _311  and  _314
REMARK  122  A    between atoms: _314  and  _315
REMARK  123  A    between atoms: _317  and  _319
REMARK  124  A    between atoms: _319  and  _320
REMARK  125  A    between atoms: _319  and  _322
REMARK  126  A    between atoms: _322  and  _323
REMARK  127  A    between atoms: _323  and  _324
REMARK  128  A    between atoms: _329  and  _331
REMARK  129  A    between atoms: _331  and  _332
REMARK  130  A    between atoms: _331  and  _334
REMARK  131  A    between atoms: _334  and  _335
REMARK  132  A    between atoms: _338  and  _340
REMARK  133  A    between atoms: _340  and  _341
REMARK  134  A    between atoms: _340  and  _343
REMARK  135  A    between atoms: _343  and  _344
REMARK  136  A    between atoms: _347  and  _349
REMARK  137  A    between atoms: _349  and  _350
REMARK  138  A    between atoms: _349  and  _352
REMARK  139  A    between atoms: _352  and  _353
REMARK  140  A    between atoms: _356  and  _358
REMARK  141  A    between atoms: _358  and  _359
REMARK  142  A    between atoms: _358  and  _361
REMARK  143  A    between atoms: _361  and  _362
REMARK  144  A    between atoms: _365  and  _367
REMARK  145  A    between atoms: _367  and  _368
REMARK  146  A    between atoms: _367  and  _370
REMARK  147  A    between atoms: _370  and  _371
REMARK  148  A    between atoms: _376  and  _378
REMARK  149  A    between atoms: _378  and  _379
REMARK  150  A    between atoms: _382  and  _384
REMARK  151  A    between atoms: _384  and  _385
REMARK  152  A    between atoms: _388  and  _390
REMARK  153  A    between atoms: _390  and  _391
REMARK  154  A    between atoms: _390  and  _393
REMARK  155  A    between atoms: _393  and  _394
REMARK  156  A    between atoms: _399  and  _400
REMARK  157  A    between atoms: _402  and  _404
REMARK  158  A    between atoms: _404  and  _405
REMARK  159  A    between atoms: _404  and  _407
REMARK  160  A    between atoms: _407  and  _408
REMARK  161  A    between atoms: _410  and  _412
REMARK  162  A    between atoms: _412  and  _413
REMARK  163  A    between atoms: _412  and  _415
REMARK  164  A    between atoms: _415  and  _416
REMARK  165  A    between atoms: _419  and  _421
REMARK  166  A    between atoms: _421  and  _422
REMARK  167  A    between atoms: _421  and  _424
REMARK  168  A    between atoms: _427  and  _429
REMARK  169  A    between atoms: _429  and  _430
REMARK  170  A    between atoms: _429  and  _432
REMARK  171  A    between atoms: _432  and  _433
REMARK  172  A    between atoms: _439  and  _441
REMARK  173  A    between atoms: _441  and  _442
REMARK  174  A    between atoms: _441  and  _444
REMARK  175  A    between atoms: _444  and  _445
REMARK  176  A    between atoms: _450  and  _452
REMARK  177  A    between atoms: _452  and  _453
REMARK  178  A    between atoms: _456  and  _458
REMARK  179  A    between atoms: _458  and  _459
REMARK  180  A    between atoms: _458  and  _461
REMARK  181  A    between atoms: _461  and  _462
REMARK  182  A    between atoms: _465  and  _467
REMARK  183  A    between atoms: _467  and  _468
REMARK  184  A    between atoms: _470  and  _472
REMARK  185  A    between atoms: _472  and  _473
REMARK  186  A    between atoms: _475  and  _477
REMARK  187  A    between atoms: _477  and  _478
REMARK  188  A    between atoms: _477  and  _480
REMARK  189  A    between atoms: _480  and  _481
REMARK  190  A    between atoms: _484  and  _486
REMARK  191  A    between atoms: _486  and  _487
REMARK  192  A    between atoms: _489  and  _491
REMARK  193  A    between atoms: _491  and  _492
REMARK  194  A    between atoms: _491  and  _494
REMARK  195  A    between atoms: _494  and  _495
REMARK  196  A    between atoms: _497  and  _499
REMARK  197  A    between atoms: _499  and  _500
REMARK  198  A    between atoms: _499  and  _502
REMARK  199  A    between atoms: _502  and  _503
REMARK                            x       y       z     vdW  Elec       q    Type
REMARK                         _______ _______ _______ _____ _____    ______ ____
ROOT
ATOM      1  O   HOH     1      27.065  43.534  63.313  0.00  0.00    +0.000 OA
ENDROOT
TORSDOF 0
REMARK  Name = ../refined-set-2016/4a95/4a95_pocket.pdb
REMARK  199 active torsions:
REMARK  status: ('A' for Active; 'I' for Inactive)
REMARK    1  A    between atoms: _1  and  _3
REMARK    2  A    between atoms: _3  and  _4
REMARK    3  A    between atoms: _3  and  _6
REMARK    4  A    between atoms: _6  and  _7
REMARK    5  A    between atoms: _12  and  _13
REMARK    6  A    between atoms: _15  and  _17
REMARK    7  A    between atoms: _17  and  _18
REMARK    8  A    between atoms: _17  and  _20
REMARK    9  A    between atoms: _23  and  _25
REMARK   10  A    between atoms: _25  and  _26
REMARK   11  A    between atoms: _25  and  _28
REMARK   12  A    between atoms: _28  and  _29
REMARK   13  A    between atoms: _29  and  _30
REMARK   14  A    between atoms: _33  and  _35
REMARK   15  A    between atoms: _35  and  _36
REMARK   16  A    between atoms: _35  and  _38
REMARK   17  A    between atoms: _38  and  _39
REMARK   18  A    between atoms: _42  and  _44
REMARK   19  A    between atoms: _44  and  _45
REMARK   20  A    between atoms: _44  and  _47
REMARK   21  A    between atoms: _47  and  _48
REMARK   22  A    between atoms: _51  and  _53
REMARK   23  A    between atoms: _53  and  _54
REMARK   24  A    between atoms: _53  and  _56
REMARK   25  A    between atoms: _56  and  _57
REMARK   26  A    between atoms: _60  and  _62
REMARK   27  A    between atoms: _62  and  _63
REMARK   28  A    between atoms: _62  and  _65
REMARK   29  A    between atoms: _65  and  _66
REMARK   30  A    between atoms: _71  and  _73
REMARK   31  A    between atoms: _73  and  _74
REMARK   32  A    between atoms: _73  and  _76
REMARK   33  A    between atoms: _76  and  _77
REMARK   34  A    between atoms: _80  and  _82
REMARK   35  A    between atoms: _82  and  _83
REMARK   36  A    between atoms: _82  and  _85
REMARK   37  A    between atoms: _85  and  _86
REMARK   38  A    between atoms: _92  and  _94
REMARK   39  A    between atoms: _94  and  _95
REMARK   40  A    between atoms: _94  and  _97
REMARK   41  A    between atoms: _97  and  _98
REMARK   42  A    between atoms: _98  and  _99
REMARK   43  A    between atoms: _99  and  _100
REMARK   44  A    between atoms: _109  and  _111
REMARK   45  A    between atoms: _111  and  _112
REMARK   46  A    between atoms: _111  and  _114
REMARK   47  A    between atoms: _114  and  _115
REMARK   48  A    between atoms: _121  and  _123
REMARK   49  A    between atoms: _123  and  _124
REMARK   50  A    between atoms: _123  and  _126
REMARK   51  A    between atoms: _126  and  _127
REMARK   52  A    between atoms: _132  and  _134
REMARK   53  A    between atoms: _134  and  _135
REMARK   54  A    between atoms: _138  and  _140
REMARK   55  A    between atoms: _140  and  _141
REMARK   56  A    between atoms: _143  and  _145
REMARK   57  A    between atoms: _145  and  _146
REMARK   58  A    between atoms: _145  and  _148
REMARK   59  A    between atoms: _151  and  _153
REMARK   60  A    between atoms: _153  and  _154
REMARK   61  A    between atoms: _153  and  _156
REMARK   62  A    between atoms: _156  and  _157
REMARK   63  A    between atoms: _157  and  _158
REMARK   64  A    between atoms: _158  and  _159
REMARK   65  A    between atoms: _168  and  _170
REMARK   66  A    between atoms: _170  and  _171
REMARK   67  A    between atoms: _170  and  _173
REMARK   68  A    between atoms: _173  and  _174
REMARK   69  A    between atoms: _179  and  _180
REMARK   70  A    between atoms: _182  and  _184
REMARK   71  A    between atoms: _184  and  _185
REMARK   72  A    between atoms: _184  and  _187
REMARK   73  A    between atoms: _187  and  _188
REMARK   74  A    between atoms: _193  and  _194
REMARK   75  A    between atoms: _196  and  _198
REMARK   76  A    between atoms: _198  and  _199
REMARK   77  A    between atoms: _198  and  _201
REMARK   78  A    between atoms: _201  and  _202
REMARK   79  A    between atoms: _207  and  _209
REMARK   80  A    between atoms: _209  and  _210
REMARK   81  A    between atoms: _209  and  _212
REMARK   82  A    between atoms: _212  and  _213
REMARK   83  A    between atoms: _213  and  _214
REMARK   84  A    between atoms: _214  and  _215
REMARK   85  A    between atoms: _224  and  _226
REMARK   86  A    between atoms: _226  and  _227
REMARK   87  A    between atoms: _226  and  _229
REMARK   88  A    between atoms: _229  and  _230
REMARK   89  A    between atoms: _232  and  _234
REMARK   90  A    between atoms: _234  and  _235
REMARK   91  A    between atoms: _234  and  _237
REMARK   92  A    between atoms: _237  and  _238
REMARK   93  A    between atoms: _241  and  _243
REMARK   94  A    between atoms: _243  and  _244
REMARK   95  A    between atoms: _243  and  _246
REMARK   96  A    between atoms: _246  and  _247
REMARK   97  A    between atoms: _250  and  _252
REMARK   98  A    between atoms: _252  and  _253
REMARK   99  A    between atoms: _252  and  _255
REMARK  100  A    between atoms: _255  and  _256
REMARK  101  A    between atoms: _259  and  _261
REMARK  102  A    between atoms: _261  and  _262
REMARK  103  A    between atoms: _261  and  _264
REMARK  104  A    between atoms: _264  and  _265
REMARK  105  A    between atoms: _271  and  _273
REMARK  106  A    between atoms: _273  and  _274
REMARK  107  A    between atoms: _273  and  _276
REMARK  108  A    between atoms: _276  and  _277
REMARK  109  A    between atoms: _279  and  _281
REMARK  110  A    between atoms: _281  and  _282
REMARK  111  A    between atoms: _281  and  _284
REMARK  112  A    between atoms: _284  and  _285
REMARK  113  A    between atoms: _290  and  _291
REMARK  114  A    between atoms: _293  and  _295
REMARK  115  A    between atoms: _295  and  _296
REMARK  116  A    between atoms: _295  and  _298
REMARK  117  A    between atoms: _298  and  _299
REMARK  118  A    between atoms: _303  and  _304
REMARK  119  A    between atoms: _309  and  _311
REMARK  120  A    between atoms: _311  and  _312
REMARK  121  A    between atoms: _311  and  _314
REMARK  122  A    between atoms: _314  and  _315
REMARK  123  A    between atoms: _317  and  _319
REMARK  124  A    between atoms: _319  and  _320
REMARK  125  A    between atoms: _319  and  _322
REMARK  126  A    between atoms: _322  and  _323
REMARK  127  A    between atoms: _323  and  _324
REMARK  128  A    between atoms: _329  and  _331
REMARK  129  A    between atoms: _331  and  _332
REMARK  130  A    between atoms: _331  and  _334
REMARK  131  A    between atoms: _334  and  _335
REMARK  132  A    between atoms: _338  and  _340
REMARK  133  A    between atoms: _340  and  _341
REMARK  134  A    between atoms: _340  and  _343
REMARK  135  A    between atoms: _343  and  _344
REMARK  136  A    between atoms: _347  and  _349
REMARK  137  A    between atoms: _349  and  _350
REMARK  138  A    between atoms: _349  and  _352
REMARK  139  A    between atoms: _352  and  _353
REMARK  140  A    between atoms: _356  and  _358
REMARK  141  A    between atoms: _358  and  _359
REMARK  142  A    between atoms: _358  and  _361
REMARK  143  A    between atoms: _361  and  _362
REMARK  144  A    between atoms: _365  and  _367
REMARK  145  A    between atoms: _367  and  _368
REMARK  146  A    between atoms: _367  and  _370
REMARK  147  A    between atoms: _370  and  _371
REMARK  148  A    between atoms: _376  and  _378
REMARK  149  A    between atoms: _378  and  _379
REMARK  150  A    between atoms: _382  and  _384
REMARK  151  A    between atoms: _384  and  _385
REMARK  152  A    between atoms: _388  and  _390
REMARK  153  A    between atoms: _390  and  _391
REMARK  154  A    between atoms: _390  and  _393
REMARK  155  A    between atoms: _393  and  _394
REMARK  156  A    between atoms: _399  and  _400
REMARK  157  A    between atoms: _402  and  _404
REMARK  158  A    between atoms: _404  and  _405
REMARK  159  A    between atoms: _404  and  _407
REMARK  160  A    between atoms: _407  and  _408
REMARK  161  A    between atoms: _410  and  _412
REMARK  162  A    between atoms: _412  and  _413
REMARK  163  A    between atoms: _412  and  _415
REMARK  164  A    between atoms: _415  and  _416
REMARK  165  A    between atoms: _419  and  _421
REMARK  166  A    between atoms: _421  and  _422
REMARK  167  A    between atoms: _421  and  _424
REMARK  168  A    between atoms: _427  and  _429
REMARK  169  A    between atoms: _429  and  _430
REMARK  170  A    between atoms: _429  and  _432
REMARK  171  A    between atoms: _432  and  _433
REMARK  172  A    between atoms: _439  and  _441
REMARK  173  A    between atoms: _441  and  _442
REMARK  174  A    between atoms: _441  and  _444
REMARK  175  A    between atoms: _444  and  _445
REMARK  176  A    between atoms: _450  and  _452
REMARK  177  A    between atoms: _452  and  _453
REMARK  178  A    between atoms: _456  and  _458
REMARK  179  A    between atoms: _458  and  _459
REMARK  180  A    between atoms: _458  and  _461
REMARK  181  A    between atoms: _461  and  _462
REMARK  182  A    between atoms: _465  and  _467
REMARK  183  A    between atoms: _467  and  _468
REMARK  184  A    between atoms: _470  and  _472
REMARK  185  A    between atoms: _472  and  _473
REMARK  186  A    between atoms: _475  and  _477
REMARK  187  A    between atoms: _477  and  _478
REMARK  188  A    between atoms: _477  and  _480
REMARK  189  A    between atoms: _480  and  _481
REMARK  190  A    between atoms: _484  and  _486
REMARK  191  A    between atoms: _486  and  _487
REMARK  192  A    between atoms: _489  and  _491
REMARK  193  A    between atoms: _491  and  _492
REMARK  194  A    between atoms: _491  and  _494
REMARK  195  A    between atoms: _494  and  _495
REMARK  196  A    between atoms: _497  and  _499
REMARK  197  A    between atoms: _499  and  _500
REMARK  198  A    between atoms: _499  and  _502
REMARK  199  A    between atoms: _502  and  _503
REMARK                            x       y       z     vdW  Elec       q    Type
REMARK                         _______ _______ _______ _____ _____    ______ ____
ROOT
ATOM      1  O   HOH     1      22.054  38.891  66.798  0.00  0.00    +0.000 OA
ENDROOT
TORSDOF 0
REMARK  Name = ../refined-set-2016/4a95/4a95_pocket.pdb
REMARK  199 active torsions:
REMARK  status: ('A' for Active; 'I' for Inactive)
REMARK    1  A    between atoms: _1  and  _3
REMARK    2  A    between atoms: _3  and  _4
REMARK    3  A    between atoms: _3  and  _6
REMARK    4  A    between atoms: _6  and  _7
REMARK    5  A    between atoms: _12  and  _13
REMARK    6  A    between atoms: _15  and  _17
REMARK    7  A    between atoms: _17  and  _18
REMARK    8  A    between atoms: _17  and  _20
REMARK    9  A    between atoms: _23  and  _25
REMARK   10  A    between atoms: _25  and  _26
REMARK   11  A    between atoms: _25  and  _28
REMARK   12  A    between atoms: _28  and  _29
REMARK   13  A    between atoms: _29  and  _30
REMARK   14  A    between atoms: _33  and  _35
REMARK   15  A    between atoms: _35  and  _36
REMARK   16  A    between atoms: _35  and  _38
REMARK   17  A    between atoms: _38  and  _39
REMARK   18  A    between atoms: _42  and  _44
REMARK   19  A    between atoms: _44  and  _45
REMARK   20  A    between atoms: _44  and  _47
REMARK   21  A    between atoms: _47  and  _48
REMARK   22  A    between atoms: _51  and  _53
REMARK   23  A    between atoms: _53  and  _54
REMARK   24  A    between atoms: _53  and  _56
REMARK   25  A    between atoms: _56  and  _57
REMARK   26  A    between atoms: _60  and  _62
REMARK   27  A    between atoms: _62  and  _63
REMARK   28  A    between atoms: _62  and  _65
REMARK   29  A    between atoms: _65  and  _66
REMARK   30  A    between atoms: _71  and  _73
REMARK   31  A    between atoms: _73  and  _74
REMARK   32  A    between atoms: _73  and  _76
REMARK   33  A    between atoms: _76  and  _77
REMARK   34  A    between atoms: _80  and  _82
REMARK   35  A    between atoms: _82  and  _83
REMARK   36  A    between atoms: _82  and  _85
REMARK   37  A    between atoms: _85  and  _86
REMARK   38  A    between atoms: _92  and  _94
REMARK   39  A    between atoms: _94  and  _95
REMARK   40  A    between atoms: _94  and  _97
REMARK   41  A    between atoms: _97  and  _98
REMARK   42  A    between atoms: _98  and  _99
REMARK   43  A    between atoms: _99  and  _100
REMARK   44  A    between atoms: _109  and  _111
REMARK   45  A    between atoms: _111  and  _112
REMARK   46  A    between atoms: _111  and  _114
REMARK   47  A    between atoms: _114  and  _115
REMARK   48  A    between atoms: _121  and  _123
REMARK   49  A    between atoms: _123  and  _124
REMARK   50  A    between atoms: _123  and  _126
REMARK   51  A    between atoms: _126  and  _127
REMARK   52  A    between atoms: _132  and  _134
REMARK   53  A    between atoms: _134  and  _135
REMARK   54  A    between atoms: _138  and  _140
REMARK   55  A    between atoms: _140  and  _141
REMARK   56  A    between atoms: _143  and  _145
REMARK   57  A    between atoms: _145  and  _146
REMARK   58  A    between atoms: _145  and  _148
REMARK   59  A    between atoms: _151  and  _153
REMARK   60  A    between atoms: _153  and  _154
REMARK   61  A    between atoms: _153  and  _156
REMARK   62  A    between atoms: _156  and  _157
REMARK   63  A    between atoms: _157  and  _158
REMARK   64  A    between atoms: _158  and  _159
REMARK   65  A    between atoms: _168  and  _170
REMARK   66  A    between atoms: _170  and  _171
REMARK   67  A    between atoms: _170  and  _173
REMARK   68  A    between atoms: _173  and  _174
REMARK   69  A    between atoms: _179  and  _180
REMARK   70  A    between atoms: _182  and  _184
REMARK   71  A    between atoms: _184  and  _185
REMARK   72  A    between atoms: _184  and  _187
REMARK   73  A    between atoms: _187  and  _188
REMARK   74  A    between atoms: _193  and  _194
REMARK   75  A    between atoms: _196  and  _198
REMARK   76  A    between atoms: _198  and  _199
REMARK   77  A    between atoms: _198  and  _201
REMARK   78  A    between atoms: _201  and  _202
REMARK   79  A    between atoms: _207  and  _209
REMARK   80  A    between atoms: _209  and  _210
REMARK   81  A    between atoms: _209  and  _212
REMARK   82  A    between atoms: _212  and  _213
REMARK   83  A    between atoms: _213  and  _214
REMARK   84  A    between atoms: _214  and  _215
REMARK   85  A    between atoms: _224  and  _226
REMARK   86  A    between atoms: _226  and  _227
REMARK   87  A    between atoms: _226  and  _229
REMARK   88  A    between atoms: _229  and  _230
REMARK   89  A    between atoms: _232  and  _234
REMARK   90  A    between atoms: _234  and  _235
REMARK   91  A    between atoms: _234  and  _237
REMARK   92  A    between atoms: _237  and  _238
REMARK   93  A    between atoms: _241  and  _243
REMARK   94  A    between atoms: _243  and  _244
REMARK   95  A    between atoms: _243  and  _246
REMARK   96  A    between atoms: _246  and  _247
REMARK   97  A    between atoms: _250  and  _252
REMARK   98  A    between atoms: _252  and  _253
REMARK   99  A    between atoms: _252  and  _255
REMARK  100  A    between atoms: _255  and  _256
REMARK  101  A    between atoms: _259  and  _261
REMARK  102  A    between atoms: _261  and  _262
REMARK  103  A    between atoms: _261  and  _264
REMARK  104  A    between atoms: _264  and  _265
REMARK  105  A    between atoms: _271  and  _273
REMARK  106  A    between atoms: _273  and  _274
REMARK  107  A    between atoms: _273  and  _276
REMARK  108  A    between atoms: _276  and  _277
REMARK  109  A    between atoms: _279  and  _281
REMARK  110  A    between atoms: _281  and  _282
REMARK  111  A    between atoms: _281  and  _284
REMARK  112  A    between atoms: _284  and  _285
REMARK  113  A    between atoms: _290  and  _291
REMARK  114  A    between atoms: _293  and  _295
REMARK  115  A    between atoms: _295  and  _296
REMARK  116  A    between atoms: _295  and  _298
REMARK  117  A    between atoms: _298  and  _299
REMARK  118  A    between atoms: _303  and  _304
REMARK  119  A    between atoms: _309  and  _311
REMARK  120  A    between atoms: _311  and  _312
REMARK  121  A    between atoms: _311  and  _314
REMARK  122  A    between atoms: _314  and  _315
REMARK  123  A    between atoms: _317  and  _319
REMARK  124  A    between atoms: _319  and  _320
REMARK  125  A    between atoms: _319  and  _322
REMARK  126  A    between atoms: _322  and  _323
REMARK  127  A    between atoms: _323  and  _324
REMARK  128  A    between atoms: _329  and  _331
REMARK  129  A    between atoms: _331  and  _332
REMARK  130  A    between atoms: _331  and  _334
REMARK  131  A    between atoms: _334  and  _335
REMARK  132  A    between atoms: _338  and  _340
REMARK  133  A    between atoms: _340  and  _341
REMARK  134  A    between atoms: _340  and  _343
REMARK  135  A    between atoms: _343  and  _344
REMARK  136  A    between atoms: _347  and  _349
REMARK  137  A    between atoms: _349  and  _350
REMARK  138  A    between atoms: _349  and  _352
REMARK  139  A    between atoms: _352  and  _353
REMARK  140  A    between atoms: _356  and  _358
REMARK  141  A    between atoms: _358  and  _359
REMARK  142  A    between atoms: _358  and  _361
REMARK  143  A    between atoms: _361  and  _362
REMARK  144  A    between atoms: _365  and  _367
REMARK  145  A    between atoms: _367  and  _368
REMARK  146  A    between atoms: _367  and  _370
REMARK  147  A    between atoms: _370  and  _371
REMARK  148  A    between atoms: _376  and  _378
REMARK  149  A    between atoms: _378  and  _379
REMARK  150  A    between atoms: _382  and  _384
REMARK  151  A    between atoms: _384  and  _385
REMARK  152  A    between atoms: _388  and  _390
REMARK  153  A    between atoms: _390  and  _391
REMARK  154  A    between atoms: _390  and  _393
REMARK  155  A    between atoms: _393  and  _394
REMARK  156  A    between atoms: _399  and  _400
REMARK  157  A    between atoms: _402  and  _404
REMARK  158  A    between atoms: _404  and  _405
REMARK  159  A    between atoms: _404  and  _407
REMARK  160  A    between atoms: _407  and  _408
REMARK  161  A    between atoms: _410  and  _412
REMARK  162  A    between atoms: _412  and  _413
REMARK  163  A    between atoms: _412  and  _415
REMARK  164  A    between atoms: _415  and  _416
REMARK  165  A    between atoms: _419  and  _421
REMARK  166  A    between atoms: _421  and  _422
REMARK  167  A    between atoms: _421  and  _424
REMARK  168  A    between atoms: _427  and  _429
REMARK  169  A    between atoms: _429  and  _430
REMARK  170  A    between atoms: _429  and  _432
REMARK  171  A    between atoms: _432  and  _433
REMARK  172  A    between atoms: _439  and  _441
REMARK  173  A    between atoms: _441  and  _442
REMARK  174  A    between atoms: _441  and  _444
REMARK  175  A    between atoms: _444  and  _445
REMARK  176  A    between atoms: _450  and  _452
REMARK  177  A    between atoms: _452  and  _453
REMARK  178  A    between atoms: _456  and  _458
REMARK  179  A    between atoms: _458  and  _459
REMARK  180  A    between atoms: _458  and  _461
REMARK  181  A    between atoms: _461  and  _462
REMARK  182  A    between atoms: _465  and  _467
REMARK  183  A    between atoms: _467  and  _468
REMARK  184  A    between atoms: _470  and  _472
REMARK  185  A    between atoms: _472  and  _473
REMARK  186  A    between atoms: _475  and  _477
REMARK  187  A    between atoms: _477  and  _478
REMARK  188  A    between atoms: _477  and  _480
REMARK  189  A    between atoms: _480  and  _481
REMARK  190  A    between atoms: _484  and  _486
REMARK  191  A    between atoms: _486  and  _487
REMARK  192  A    between atoms: _489  and  _491
REMARK  193  A    between atoms: _491  and  _492
REMARK  194  A    between atoms: _491  and  _494
REMARK  195  A    between atoms: _494  and  _495
REMARK  196  A    between atoms: _497  and  _499
REMARK  197  A    between atoms: _499  and  _500
REMARK  198  A    between atoms: _499  and  _502
REMARK  199  A    between atoms: _502  and  _503
REMARK                            x       y       z     vdW  Elec       q    Type
REMARK                         _______ _______ _______ _____ _____    ______ ____
ROOT
ATOM      1  O   HOH     1      24.914  41.470  67.189  0.00  0.00    +0.000 OA
ENDROOT
TORSDOF 0
REMARK  Name = ../refined-set-2016/4a95/4a95_pocket.pdb
REMARK  199 active torsions:
REMARK  status: ('A' for Active; 'I' for Inactive)
REMARK    1  A    between atoms: _1  and  _3
REMARK    2  A    between atoms: _3  and  _4
REMARK    3  A    between atoms: _3  and  _6
REMARK    4  A    between atoms: _6  and  _7
REMARK    5  A    between atoms: _12  and  _13
REMARK    6  A    between atoms: _15  and  _17
REMARK    7  A    between atoms: _17  and  _18
REMARK    8  A    between atoms: _17  and  _20
REMARK    9  A    between atoms: _23  and  _25
REMARK   10  A    between atoms: _25  and  _26
REMARK   11  A    between atoms: _25  and  _28
REMARK   12  A    between atoms: _28  and  _29
REMARK   13  A    between atoms: _29  and  _30
REMARK   14  A    between atoms: _33  and  _35
REMARK   15  A    between atoms: _35  and  _36
REMARK   16  A    between atoms: _35  and  _38
REMARK   17  A    between atoms: _38  and  _39
REMARK   18  A    between atoms: _42  and  _44
REMARK   19  A    between atoms: _44  and  _45
REMARK   20  A    between atoms: _44  and  _47
REMARK   21  A    between atoms: _47  and  _48
REMARK   22  A    between atoms: _51  and  _53
REMARK   23  A    between atoms: _53  and  _54
REMARK   24  A    between atoms: _53  and  _56
REMARK   25  A    between atoms: _56  and  _57
REMARK   26  A    between atoms: _60  and  _62
REMARK   27  A    between atoms: _62  and  _63
REMARK   28  A    between atoms: _62  and  _65
REMARK   29  A    between atoms: _65  and  _66
REMARK   30  A    between atoms: _71  and  _73
REMARK   31  A    between atoms: _73  and  _74
REMARK   32  A    between atoms: _73  and  _76
REMARK   33  A    between atoms: _76  and  _77
REMARK   34  A    between atoms: _80  and  _82
REMARK   35  A    between atoms: _82  and  _83
REMARK   36  A    between atoms: _82  and  _85
REMARK   37  A    between atoms: _85  and  _86
REMARK   38  A    between atoms: _92  and  _94
REMARK   39  A    between atoms: _94  and  _95
REMARK   40  A    between atoms: _94  and  _97
REMARK   41  A    between atoms: _97  and  _98
REMARK   42  A    between atoms: _98  and  _99
REMARK   43  A    between atoms: _99  and  _100
REMARK   44  A    between atoms: _109  and  _111
REMARK   45  A    between atoms: _111  and  _112
REMARK   46  A    between atoms: _111  and  _114
REMARK   47  A    between atoms: _114  and  _115
REMARK   48  A    between atoms: _121  and  _123
REMARK   49  A    between atoms: _123  and  _124
REMARK   50  A    between atoms: _123  and  _126
REMARK   51  A    between atoms: _126  and  _127
REMARK   52  A    between atoms: _132  and  _134
REMARK   53  A    between atoms: _134  and  _135
REMARK   54  A    between atoms: _138  and  _140
REMARK   55  A    between atoms: _140  and  _141
REMARK   56  A    between atoms: _143  and  _145
REMARK   57  A    between atoms: _145  and  _146
REMARK   58  A    between atoms: _145  and  _148
REMARK   59  A    between atoms: _151  and  _153
REMARK   60  A    between atoms: _153  and  _154
REMARK   61  A    between atoms: _153  and  _156
REMARK   62  A    between atoms: _156  and  _157
REMARK   63  A    between atoms: _157  and  _158
REMARK   64  A    between atoms: _158  and  _159
REMARK   65  A    between atoms: _168  and  _170
REMARK   66  A    between atoms: _170  and  _171
REMARK   67  A    between atoms: _170  and  _173
REMARK   68  A    between atoms: _173  and  _174
REMARK   69  A    between atoms: _179  and  _180
REMARK   70  A    between atoms: _182  and  _184
REMARK   71  A    between atoms: _184  and  _185
REMARK   72  A    between atoms: _184  and  _187
REMARK   73  A    between atoms: _187  and  _188
REMARK   74  A    between atoms: _193  and  _194
REMARK   75  A    between atoms: _196  and  _198
REMARK   76  A    between atoms: _198  and  _199
REMARK   77  A    between atoms: _198  and  _201
REMARK   78  A    between atoms: _201  and  _202
REMARK   79  A    between atoms: _207  and  _209
REMARK   80  A    between atoms: _209  and  _210
REMARK   81  A    between atoms: _209  and  _212
REMARK   82  A    between atoms: _212  and  _213
REMARK   83  A    between atoms: _213  and  _214
REMARK   84  A    between atoms: _214  and  _215
REMARK   85  A    between atoms: _224  and  _226
REMARK   86  A    between atoms: _226  and  _227
REMARK   87  A    between atoms: _226  and  _229
REMARK   88  A    between atoms: _229  and  _230
REMARK   89  A    between atoms: _232  and  _234
REMARK   90  A    between atoms: _234  and  _235
REMARK   91  A    between atoms: _234  and  _237
REMARK   92  A    between atoms: _237  and  _238
REMARK   93  A    between atoms: _241  and  _243
REMARK   94  A    between atoms: _243  and  _244
REMARK   95  A    between atoms: _243  and  _246
REMARK   96  A    between atoms: _246  and  _247
REMARK   97  A    between atoms: _250  and  _252
REMARK   98  A    between atoms: _252  and  _253
REMARK   99  A    between atoms: _252  and  _255
REMARK  100  A    between atoms: _255  and  _256
REMARK  101  A    between atoms: _259  and  _261
REMARK  102  A    between atoms: _261  and  _262
REMARK  103  A    between atoms: _261  and  _264
REMARK  104  A    between atoms: _264  and  _265
REMARK  105  A    between atoms: _271  and  _273
REMARK  106  A    between atoms: _273  and  _274
REMARK  107  A    between atoms: _273  and  _276
REMARK  108  A    between atoms: _276  and  _277
REMARK  109  A    between atoms: _279  and  _281
REMARK  110  A    between atoms: _281  and  _282
REMARK  111  A    between atoms: _281  and  _284
REMARK  112  A    between atoms: _284  and  _285
REMARK  113  A    between atoms: _290  and  _291
REMARK  114  A    between atoms: _293  and  _295
REMARK  115  A    between atoms: _295  and  _296
REMARK  116  A    between atoms: _295  and  _298
REMARK  117  A    between atoms: _298  and  _299
REMARK  118  A    between atoms: _303  and  _304
REMARK  119  A    between atoms: _309  and  _311
REMARK  120  A    between atoms: _311  and  _312
REMARK  121  A    between atoms: _311  and  _314
REMARK  122  A    between atoms: _314  and  _315
REMARK  123  A    between atoms: _317  and  _319
REMARK  124  A    between atoms: _319  and  _320
REMARK  125  A    between atoms: _319  and  _322
REMARK  126  A    between atoms: _322  and  _323
REMARK  127  A    between atoms: _323  and  _324
REMARK  128  A    between atoms: _329  and  _331
REMARK  129  A    between atoms: _331  and  _332
REMARK  130  A    between atoms: _331  and  _334
REMARK  131  A    between atoms: _334  and  _335
REMARK  132  A    between atoms: _338  and  _340
REMARK  133  A    between atoms: _340  and  _341
REMARK  134  A    between atoms: _340  and  _343
REMARK  135  A    between atoms: _343  and  _344
REMARK  136  A    between atoms: _347  and  _349
REMARK  137  A    between atoms: _349  and  _350
REMARK  138  A    between atoms: _349  and  _352
REMARK  139  A    between atoms: _352  and  _353
REMARK  140  A    between atoms: _356  and  _358
REMARK  141  A    between atoms: _358  and  _359
REMARK  142  A    between atoms: _358  and  _361
REMARK  143  A    between atoms: _361  and  _362
REMARK  144  A    between atoms: _365  and  _367
REMARK  145  A    between atoms: _367  and  _368
REMARK  146  A    between atoms: _367  and  _370
REMARK  147  A    between atoms: _370  and  _371
REMARK  148  A    between atoms: _376  and  _378
REMARK  149  A    between atoms: _378  and  _379
REMARK  150  A    between atoms: _382  and  _384
REMARK  151  A    between atoms: _384  and  _385
REMARK  152  A    between atoms: _388  and  _390
REMARK  153  A    between atoms: _390  and  _391
REMARK  154  A    between atoms: _390  and  _393
REMARK  155  A    between atoms: _393  and  _394
REMARK  156  A    between atoms: _399  and  _400
REMARK  157  A    between atoms: _402  and  _404
REMARK  158  A    between atoms: _404  and  _405
REMARK  159  A    between atoms: _404  and  _407
REMARK  160  A    between atoms: _407  and  _408
REMARK  161  A    between atoms: _410  and  _412
REMARK  162  A    between atoms: _412  and  _413
REMARK  163  A    between atoms: _412  and  _415
REMARK  164  A    between atoms: _415  and  _416
REMARK  165  A    between atoms: _419  and  _421
REMARK  166  A    between atoms: _421  and  _422
REMARK  167  A    between atoms: _421  and  _424
REMARK  168  A    between atoms: _427  and  _429
REMARK  169  A    between atoms: _429  and  _430
REMARK  170  A    between atoms: _429  and  _432
REMARK  171  A    between atoms: _432  and  _433
REMARK  172  A    between atoms: _439  and  _441
REMARK  173  A    between atoms: _441  and  _442
REMARK  174  A    between atoms: _441  and  _444
REMARK  175  A    between atoms: _444  and  _445
REMARK  176  A    between atoms: _450  and  _452
REMARK  177  A    between atoms: _452  and  _453
REMARK  178  A    between atoms: _456  and  _458
REMARK  179  A    between atoms: _458  and  _459
REMARK  180  A    between atoms: _458  and  _461
REMARK  181  A    between atoms: _461  and  _462
REMARK  182  A    between atoms: _465  and  _467
REMARK  183  A    between atoms: _467  and  _468
REMARK  184  A    between atoms: _470  and  _472
REMARK  185  A    between atoms: _472  and  _473
REMARK  186  A    between atoms: _475  and  _477
REMARK  187  A    between atoms: _477  and  _478
REMARK  188  A    between atoms: _477  and  _480
REMARK  189  A    between atoms: _480  and  _481
REMARK  190  A    between atoms: _484  and  _486
REMARK  191  A    between atoms: _486  and  _487
REMARK  192  A    between atoms: _489  and  _491
REMARK  193  A    between atoms: _491  and  _492
REMARK  194  A    between atoms: _491  and  _494
REMARK  195  A    between atoms: _494  and  _495
REMARK  196  A    between atoms: _497  and  _499
REMARK  197  A    between atoms: _499  and  _500
REMARK  198  A    between atoms: _499  and  _502
REMARK  199  A    between atoms: _502  and  _503
REMARK                            x       y       z     vdW  Elec       q    Type
REMARK                         _______ _______ _______ _____ _____    ______ ____
ROOT
ATOM      1  O   HOH     1      21.183  47.033  57.166  0.00  0.00    +0.000 OA
ENDROOT
TORSDOF 0
REMARK  Name = ../refined-set-2016/4a95/4a95_pocket.pdb
REMARK  199 active torsions:
REMARK  status: ('A' for Active; 'I' for Inactive)
REMARK    1  A    between atoms: _1  and  _3
REMARK    2  A    between atoms: _3  and  _4
REMARK    3  A    between atoms: _3  and  _6
REMARK    4  A    between atoms: _6  and  _7
REMARK    5  A    between atoms: _12  and  _13
REMARK    6  A    between atoms: _15  and  _17
REMARK    7  A    between atoms: _17  and  _18
REMARK    8  A    between atoms: _17  and  _20
REMARK    9  A    between atoms: _23  and  _25
REMARK   10  A    between atoms: _25  and  _26
REMARK   11  A    between atoms: _25  and  _28
REMARK   12  A    between atoms: _28  and  _29
REMARK   13  A    between atoms: _29  and  _30
REMARK   14  A    between atoms: _33  and  _35
REMARK   15  A    between atoms: _35  and  _36
REMARK   16  A    between atoms: _35  and  _38
REMARK   17  A    between atoms: _38  and  _39
REMARK   18  A    between atoms: _42  and  _44
REMARK   19  A    between atoms: _44  and  _45
REMARK   20  A    between atoms: _44  and  _47
REMARK   21  A    between atoms: _47  and  _48
REMARK   22  A    between atoms: _51  and  _53
REMARK   23  A    between atoms: _53  and  _54
REMARK   24  A    between atoms: _53  and  _56
REMARK   25  A    between atoms: _56  and  _57
REMARK   26  A    between atoms: _60  and  _62
REMARK   27  A    between atoms: _62  and  _63
REMARK   28  A    between atoms: _62  and  _65
REMARK   29  A    between atoms: _65  and  _66
REMARK   30  A    between atoms: _71  and  _73
REMARK   31  A    between atoms: _73  and  _74
REMARK   32  A    between atoms: _73  and  _76
REMARK   33  A    between atoms: _76  and  _77
REMARK   34  A    between atoms: _80  and  _82
REMARK   35  A    between atoms: _82  and  _83
REMARK   36  A    between atoms: _82  and  _85
REMARK   37  A    between atoms: _85  and  _86
REMARK   38  A    between atoms: _92  and  _94
REMARK   39  A    between atoms: _94  and  _95
REMARK   40  A    between atoms: _94  and  _97
REMARK   41  A    between atoms: _97  and  _98
REMARK   42  A    between atoms: _98  and  _99
REMARK   43  A    between atoms: _99  and  _100
REMARK   44  A    between atoms: _109  and  _111
REMARK   45  A    between atoms: _111  and  _112
REMARK   46  A    between atoms: _111  and  _114
REMARK   47  A    between atoms: _114  and  _115
REMARK   48  A    between atoms: _121  and  _123
REMARK   49  A    between atoms: _123  and  _124
REMARK   50  A    between atoms: _123  and  _126
REMARK   51  A    between atoms: _126  and  _127
REMARK   52  A    between atoms: _132  and  _134
REMARK   53  A    between atoms: _134  and  _135
REMARK   54  A    between atoms: _138  and  _140
REMARK   55  A    between atoms: _140  and  _141
REMARK   56  A    between atoms: _143  and  _145
REMARK   57  A    between atoms: _145  and  _146
REMARK   58  A    between atoms: _145  and  _148
REMARK   59  A    between atoms: _151  and  _153
REMARK   60  A    between atoms: _153  and  _154
REMARK   61  A    between atoms: _153  and  _156
REMARK   62  A    between atoms: _156  and  _157
REMARK   63  A    between atoms: _157  and  _158
REMARK   64  A    between atoms: _158  and  _159
REMARK   65  A    between atoms: _168  and  _170
REMARK   66  A    between atoms: _170  and  _171
REMARK   67  A    between atoms: _170  and  _173
REMARK   68  A    between atoms: _173  and  _174
REMARK   69  A    between atoms: _179  and  _180
REMARK   70  A    between atoms: _182  and  _184
REMARK   71  A    between atoms: _184  and  _185
REMARK   72  A    between atoms: _184  and  _187
REMARK   73  A    between atoms: _187  and  _188
REMARK   74  A    between atoms: _193  and  _194
REMARK   75  A    between atoms: _196  and  _198
REMARK   76  A    between atoms: _198  and  _199
REMARK   77  A    between atoms: _198  and  _201
REMARK   78  A    between atoms: _201  and  _202
REMARK   79  A    between atoms: _207  and  _209
REMARK   80  A    between atoms: _209  and  _210
REMARK   81  A    between atoms: _209  and  _212
REMARK   82  A    between atoms: _212  and  _213
REMARK   83  A    between atoms: _213  and  _214
REMARK   84  A    between atoms: _214  and  _215
REMARK   85  A    between atoms: _224  and  _226
REMARK   86  A    between atoms: _226  and  _227
REMARK   87  A    between atoms: _226  and  _229
REMARK   88  A    between atoms: _229  and  _230
REMARK   89  A    between atoms: _232  and  _234
REMARK   90  A    between atoms: _234  and  _235
REMARK   91  A    between atoms: _234  and  _237
REMARK   92  A    between atoms: _237  and  _238
REMARK   93  A    between atoms: _241  and  _243
REMARK   94  A    between atoms: _243  and  _244
REMARK   95  A    between atoms: _243  and  _246
REMARK   96  A    between atoms: _246  and  _247
REMARK   97  A    between atoms: _250  and  _252
REMARK   98  A    between atoms: _252  and  _253
REMARK   99  A    between atoms: _252  and  _255
REMARK  100  A    between atoms: _255  and  _256
REMARK  101  A    between atoms: _259  and  _261
REMARK  102  A    between atoms: _261  and  _262
REMARK  103  A    between atoms: _261  and  _264
REMARK  104  A    between atoms: _264  and  _265
REMARK  105  A    between atoms: _271  and  _273
REMARK  106  A    between atoms: _273  and  _274
REMARK  107  A    between atoms: _273  and  _276
REMARK  108  A    between atoms: _276  and  _277
REMARK  109  A    between atoms: _279  and  _281
REMARK  110  A    between atoms: _281  and  _282
REMARK  111  A    between atoms: _281  and  _284
REMARK  112  A    between atoms: _284  and  _285
REMARK  113  A    between atoms: _290  and  _291
REMARK  114  A    between atoms: _293  and  _295
REMARK  115  A    between atoms: _295  and  _296
REMARK  116  A    between atoms: _295  and  _298
REMARK  117  A    between atoms: _298  and  _299
REMARK  118  A    between atoms: _303  and  _304
REMARK  119  A    between atoms: _309  and  _311
REMARK  120  A    between atoms: _311  and  _312
REMARK  121  A    between atoms: _311  and  _314
REMARK  122  A    between atoms: _314  and  _315
REMARK  123  A    between atoms: _317  and  _319
REMARK  124  A    between atoms: _319  and  _320
REMARK  125  A    between atoms: _319  and  _322
REMARK  126  A    between atoms: _322  and  _323
REMARK  127  A    between atoms: _323  and  _324
REMARK  128  A    between atoms: _329  and  _331
REMARK  129  A    between atoms: _331  and  _332
REMARK  130  A    between atoms: _331  and  _334
REMARK  131  A    between atoms: _334  and  _335
REMARK  132  A    between atoms: _338  and  _340
REMARK  133  A    between atoms: _340  and  _341
REMARK  134  A    between atoms: _340  and  _343
REMARK  135  A    between atoms: _343  and  _344
REMARK  136  A    between atoms: _347  and  _349
REMARK  137  A    between atoms: _349  and  _350
REMARK  138  A    between atoms: _349  and  _352
REMARK  139  A    between atoms: _352  and  _353
REMARK  140  A    between atoms: _356  and  _358
REMARK  141  A    between atoms: _358  and  _359
REMARK  142  A    between atoms: _358  and  _361
REMARK  143  A    between atoms: _361  and  _362
REMARK  144  A    between atoms: _365  and  _367
REMARK  145  A    between atoms: _367  and  _368
REMARK  146  A    between atoms: _367  and  _370
REMARK  147  A    between atoms: _370  and  _371
REMARK  148  A    between atoms: _376  and  _378
REMARK  149  A    between atoms: _378  and  _379
REMARK  150  A    between atoms: _382  and  _384
REMARK  151  A    between atoms: _384  and  _385
REMARK  152  A    between atoms: _388  and  _390
REMARK  153  A    between atoms: _390  and  _391
REMARK  154  A    between atoms: _390  and  _393
REMARK  155  A    between atoms: _393  and  _394
REMARK  156  A    between atoms: _399  and  _400
REMARK  157  A    between atoms: _402  and  _404
REMARK  158  A    between atoms: _404  and  _405
REMARK  159  A    between atoms: _404  and  _407
REMARK  160  A    between atoms: _407  and  _408
REMARK  161  A    between atoms: _410  and  _412
REMARK  162  A    between atoms: _412  and  _413
REMARK  163  A    between atoms: _412  and  _415
REMARK  164  A    between atoms: _415  and  _416
REMARK  165  A    between atoms: _419  and  _421
REMARK  166  A    between atoms: _421  and  _422
REMARK  167  A    between atoms: _421  and  _424
REMARK  168  A    between atoms: _427  and  _429
REMARK  169  A    between atoms: _429  and  _430
REMARK  170  A    between atoms: _429  and  _432
REMARK  171  A    between atoms: _432  and  _433
REMARK  172  A    between atoms: _439  and  _441
REMARK  173  A    between atoms: _441  and  _442
REMARK  174  A    between atoms: _441  and  _444
REMARK  175  A    between atoms: _444  and  _445
REMARK  176  A    between atoms: _450  and  _452
REMARK  177  A    between atoms: _452  and  _453
REMARK  178  A    between atoms: _456  and  _458
REMARK  179  A    between atoms: _458  and  _459
REMARK  180  A    between atoms: _458  and  _461
REMARK  181  A    between atoms: _461  and  _462
REMARK  182  A    between atoms: _465  and  _467
REMARK  183  A    between atoms: _467  and  _468
REMARK  184  A    between atoms: _470  and  _472
REMARK  185  A    between atoms: _472  and  _473
REMARK  186  A    between atoms: _475  and  _477
REMARK  187  A    between atoms: _477  and  _478
REMARK  188  A    between atoms: _477  and  _480
REMARK  189  A    between atoms: _480  and  _481
REMARK  190  A    between atoms: _484  and  _486
REMARK  191  A    between atoms: _486  and  _487
REMARK  192  A    between atoms: _489  and  _491
REMARK  193  A    between atoms: _491  and  _492
REMARK  194  A    between atoms: _491  and  _494
REMARK  195  A    between atoms: _494  and  _495
REMARK  196  A    between atoms: _497  and  _499
REMARK  197  A    between atoms: _499  and  _500
REMARK  198  A    between atoms: _499  and  _502
REMARK  199  A    between atoms: _502  and  _503
REMARK                            x       y       z     vdW  Elec       q    Type
REMARK                         _______ _______ _______ _____ _____    ______ ____
ROOT
ATOM      1  O   HOH     1      15.708  50.547  54.415  0.00  0.00    +0.000 OA
ENDROOT
TORSDOF 0
REMARK  Name = ../refined-set-2016/4a95/4a95_pocket.pdb
REMARK  199 active torsions:
REMARK  status: ('A' for Active; 'I' for Inactive)
REMARK    1  A    between atoms: _1  and  _3
REMARK    2  A    between atoms: _3  and  _4
REMARK    3  A    between atoms: _3  and  _6
REMARK    4  A    between atoms: _6  and  _7
REMARK    5  A    between atoms: _12  and  _13
REMARK    6  A    between atoms: _15  and  _17
REMARK    7  A    between atoms: _17  and  _18
REMARK    8  A    between atoms: _17  and  _20
REMARK    9  A    between atoms: _23  and  _25
REMARK   10  A    between atoms: _25  and  _26
REMARK   11  A    between atoms: _25  and  _28
REMARK   12  A    between atoms: _28  and  _29
REMARK   13  A    between atoms: _29  and  _30
REMARK   14  A    between atoms: _33  and  _35
REMARK   15  A    between atoms: _35  and  _36
REMARK   16  A    between atoms: _35  and  _38
REMARK   17  A    between atoms: _38  and  _39
REMARK   18  A    between atoms: _42  and  _44
REMARK   19  A    between atoms: _44  and  _45
REMARK   20  A    between atoms: _44  and  _47
REMARK   21  A    between atoms: _47  and  _48
REMARK   22  A    between atoms: _51  and  _53
REMARK   23  A    between atoms: _53  and  _54
REMARK   24  A    between atoms: _53  and  _56
REMARK   25  A    between atoms: _56  and  _57
REMARK   26  A    between atoms: _60  and  _62
REMARK   27  A    between atoms: _62  and  _63
REMARK   28  A    between atoms: _62  and  _65
REMARK   29  A    between atoms: _65  and  _66
REMARK   30  A    between atoms: _71  and  _73
REMARK   31  A    between atoms: _73  and  _74
REMARK   32  A    between atoms: _73  and  _76
REMARK   33  A    between atoms: _76  and  _77
REMARK   34  A    between atoms: _80  and  _82
REMARK   35  A    between atoms: _82  and  _83
REMARK   36  A    between atoms: _82  and  _85
REMARK   37  A    between atoms: _85  and  _86
REMARK   38  A    between atoms: _92  and  _94
REMARK   39  A    between atoms: _94  and  _95
REMARK   40  A    between atoms: _94  and  _97
REMARK   41  A    between atoms: _97  and  _98
REMARK   42  A    between atoms: _98  and  _99
REMARK   43  A    between atoms: _99  and  _100
REMARK   44  A    between atoms: _109  and  _111
REMARK   45  A    between atoms: _111  and  _112
REMARK   46  A    between atoms: _111  and  _114
REMARK   47  A    between atoms: _114  and  _115
REMARK   48  A    between atoms: _121  and  _123
REMARK   49  A    between atoms: _123  and  _124
REMARK   50  A    between atoms: _123  and  _126
REMARK   51  A    between atoms: _126  and  _127
REMARK   52  A    between atoms: _132  and  _134
REMARK   53  A    between atoms: _134  and  _135
REMARK   54  A    between atoms: _138  and  _140
REMARK   55  A    between atoms: _140  and  _141
REMARK   56  A    between atoms: _143  and  _145
REMARK   57  A    between atoms: _145  and  _146
REMARK   58  A    between atoms: _145  and  _148
REMARK   59  A    between atoms: _151  and  _153
REMARK   60  A    between atoms: _153  and  _154
REMARK   61  A    between atoms: _153  and  _156
REMARK   62  A    between atoms: _156  and  _157
REMARK   63  A    between atoms: _157  and  _158
REMARK   64  A    between atoms: _158  and  _159
REMARK   65  A    between atoms: _168  and  _170
REMARK   66  A    between atoms: _170  and  _171
REMARK   67  A    between atoms: _170  and  _173
REMARK   68  A    between atoms: _173  and  _174
REMARK   69  A    between atoms: _179  and  _180
REMARK   70  A    between atoms: _182  and  _184
REMARK   71  A    between atoms: _184  and  _185
REMARK   72  A    between atoms: _184  and  _187
REMARK   73  A    between atoms: _187  and  _188
REMARK   74  A    between atoms: _193  and  _194
REMARK   75  A    between atoms: _196  and  _198
REMARK   76  A    between atoms: _198  and  _199
REMARK   77  A    between atoms: _198  and  _201
REMARK   78  A    between atoms: _201  and  _202
REMARK   79  A    between atoms: _207  and  _209
REMARK   80  A    between atoms: _209  and  _210
REMARK   81  A    between atoms: _209  and  _212
REMARK   82  A    between atoms: _212  and  _213
REMARK   83  A    between atoms: _213  and  _214
REMARK   84  A    between atoms: _214  and  _215
REMARK   85  A    between atoms: _224  and  _226
REMARK   86  A    between atoms: _226  and  _227
REMARK   87  A    between atoms: _226  and  _229
REMARK   88  A    between atoms: _229  and  _230
REMARK   89  A    between atoms: _232  and  _234
REMARK   90  A    between atoms: _234  and  _235
REMARK   91  A    between atoms: _234  and  _237
REMARK   92  A    between atoms: _237  and  _238
REMARK   93  A    between atoms: _241  and  _243
REMARK   94  A    between atoms: _243  and  _244
REMARK   95  A    between atoms: _243  and  _246
REMARK   96  A    between atoms: _246  and  _247
REMARK   97  A    between atoms: _250  and  _252
REMARK   98  A    between atoms: _252  and  _253
REMARK   99  A    between atoms: _252  and  _255
REMARK  100  A    between atoms: _255  and  _256
REMARK  101  A    between atoms: _259  and  _261
REMARK  102  A    between atoms: _261  and  _262
REMARK  103  A    between atoms: _261  and  _264
REMARK  104  A    between atoms: _264  and  _265
REMARK  105  A    between atoms: _271  and  _273
REMARK  106  A    between atoms: _273  and  _274
REMARK  107  A    between atoms: _273  and  _276
REMARK  108  A    between atoms: _276  and  _277
REMARK  109  A    between atoms: _279  and  _281
REMARK  110  A    between atoms: _281  and  _282
REMARK  111  A    between atoms: _281  and  _284
REMARK  112  A    between atoms: _284  and  _285
REMARK  113  A    between atoms: _290  and  _291
REMARK  114  A    between atoms: _293  and  _295
REMARK  115  A    between atoms: _295  and  _296
REMARK  116  A    between atoms: _295  and  _298
REMARK  117  A    between atoms: _298  and  _299
REMARK  118  A    between atoms: _303  and  _304
REMARK  119  A    between atoms: _309  and  _311
REMARK  120  A    between atoms: _311  and  _312
REMARK  121  A    between atoms: _311  and  _314
REMARK  122  A    between atoms: _314  and  _315
REMARK  123  A    between atoms: _317  and  _319
REMARK  124  A    between atoms: _319  and  _320
REMARK  125  A    between atoms: _319  and  _322
REMARK  126  A    between atoms: _322  and  _323
REMARK  127  A    between atoms: _323  and  _324
REMARK  128  A    between atoms: _329  and  _331
REMARK  129  A    between atoms: _331  and  _332
REMARK  130  A    between atoms: _331  and  _334
REMARK  131  A    between atoms: _334  and  _335
REMARK  132  A    between atoms: _338  and  _340
REMARK  133  A    between atoms: _340  and  _341
REMARK  134  A    between atoms: _340  and  _343
REMARK  135  A    between atoms: _343  and  _344
REMARK  136  A    between atoms: _347  and  _349
REMARK  137  A    between atoms: _349  and  _350
REMARK  138  A    between atoms: _349  and  _352
REMARK  139  A    between atoms: _352  and  _353
REMARK  140  A    between atoms: _356  and  _358
REMARK  141  A    between atoms: _358  and  _359
REMARK  142  A    between atoms: _358  and  _361
REMARK  143  A    between atoms: _361  and  _362
REMARK  144  A    between atoms: _365  and  _367
REMARK  145  A    between atoms: _367  and  _368
REMARK  146  A    between atoms: _367  and  _370
REMARK  147  A    between atoms: _370  and  _371
REMARK  148  A    between atoms: _376  and  _378
REMARK  149  A    between atoms: _378  and  _379
REMARK  150  A    between atoms: _382  and  _384
REMARK  151  A    between atoms: _384  and  _385
REMARK  152  A    between atoms: _388  and  _390
REMARK  153  A    between atoms: _390  and  _391
REMARK  154  A    between atoms: _390  and  _393
REMARK  155  A    between atoms: _393  and  _394
REMARK  156  A    between atoms: _399  and  _400
REMARK  157  A    between atoms: _402  and  _404
REMARK  158  A    between atoms: _404  and  _405
REMARK  159  A    between atoms: _404  and  _407
REMARK  160  A    between atoms: _407  and  _408
REMARK  161  A    between atoms: _410  and  _412
REMARK  162  A    between atoms: _412  and  _413
REMARK  163  A    between atoms: _412  and  _415
REMARK  164  A    between atoms: _415  and  _416
REMARK  165  A    between atoms: _419  and  _421
REMARK  166  A    between atoms: _421  and  _422
REMARK  167  A    between atoms: _421  and  _424
REMARK  168  A    between atoms: _427  and  _429
REMARK  169  A    between atoms: _429  and  _430
REMARK  170  A    between atoms: _429  and  _432
REMARK  171  A    between atoms: _432  and  _433
REMARK  172  A    between atoms: _439  and  _441
REMARK  173  A    between atoms: _441  and  _442
REMARK  174  A    between atoms: _441  and  _444
REMARK  175  A    between atoms: _444  and  _445
REMARK  176  A    between atoms: _450  and  _452
REMARK  177  A    between atoms: _452  and  _453
REMARK  178  A    between atoms: _456  and  _458
REMARK  179  A    between atoms: _458  and  _459
REMARK  180  A    between atoms: _458  and  _461
REMARK  181  A    between atoms: _461  and  _462
REMARK  182  A    between atoms: _465  and  _467
REMARK  183  A    between atoms: _467  and  _468
REMARK  184  A    between atoms: _470  and  _472
REMARK  185  A    between atoms: _472  and  _473
REMARK  186  A    between atoms: _475  and  _477
REMARK  187  A    between atoms: _477  and  _478
REMARK  188  A    between atoms: _477  and  _480
REMARK  189  A    between atoms: _480  and  _481
REMARK  190  A    between atoms: _484  and  _486
REMARK  191  A    between atoms: _486  and  _487
REMARK  192  A    between atoms: _489  and  _491
REMARK  193  A    between atoms: _491  and  _492
REMARK  194  A    between atoms: _491  and  _494
REMARK  195  A    between atoms: _494  and  _495
REMARK  196  A    between atoms: _497  and  _499
REMARK  197  A    between atoms: _499  and  _500
REMARK  198  A    between atoms: _499  and  _502
REMARK  199  A    between atoms: _502  and  _503
REMARK                            x       y       z     vdW  Elec       q    Type
REMARK                         _______ _______ _______ _____ _____    ______ ____
ROOT
ATOM      1  O   HOH     1      20.648  48.151  67.398  0.00  0.00    +0.000 OA
ENDROOT
TORSDOF 0
REMARK  Name = ../refined-set-2016/4a95/4a95_pocket.pdb
REMARK  199 active torsions:
REMARK  status: ('A' for Active; 'I' for Inactive)
REMARK    1  A    between atoms: _1  and  _3
REMARK    2  A    between atoms: _3  and  _4
REMARK    3  A    between atoms: _3  and  _6
REMARK    4  A    between atoms: _6  and  _7
REMARK    5  A    between atoms: _12  and  _13
REMARK    6  A    between atoms: _15  and  _17
REMARK    7  A    between atoms: _17  and  _18
REMARK    8  A    between atoms: _17  and  _20
REMARK    9  A    between atoms: _23  and  _25
REMARK   10  A    between atoms: _25  and  _26
REMARK   11  A    between atoms: _25  and  _28
REMARK   12  A    between atoms: _28  and  _29
REMARK   13  A    between atoms: _29  and  _30
REMARK   14  A    between atoms: _33  and  _35
REMARK   15  A    between atoms: _35  and  _36
REMARK   16  A    between atoms: _35  and  _38
REMARK   17  A    between atoms: _38  and  _39
REMARK   18  A    between atoms: _42  and  _44
REMARK   19  A    between atoms: _44  and  _45
REMARK   20  A    between atoms: _44  and  _47
REMARK   21  A    between atoms: _47  and  _48
REMARK   22  A    between atoms: _51  and  _53
REMARK   23  A    between atoms: _53  and  _54
REMARK   24  A    between atoms: _53  and  _56
REMARK   25  A    between atoms: _56  and  _57
REMARK   26  A    between atoms: _60  and  _62
REMARK   27  A    between atoms: _62  and  _63
REMARK   28  A    between atoms: _62  and  _65
REMARK   29  A    between atoms: _65  and  _66
REMARK   30  A    between atoms: _71  and  _73
REMARK   31  A    between atoms: _73  and  _74
REMARK   32  A    between atoms: _73  and  _76
REMARK   33  A    between atoms: _76  and  _77
REMARK   34  A    between atoms: _80  and  _82
REMARK   35  A    between atoms: _82  and  _83
REMARK   36  A    between atoms: _82  and  _85
REMARK   37  A    between atoms: _85  and  _86
REMARK   38  A    between atoms: _92  and  _94
REMARK   39  A    between atoms: _94  and  _95
REMARK   40  A    between atoms: _94  and  _97
REMARK   41  A    between atoms: _97  and  _98
REMARK   42  A    between atoms: _98  and  _99
REMARK   43  A    between atoms: _99  and  _100
REMARK   44  A    between atoms: _109  and  _111
REMARK   45  A    between atoms: _111  and  _112
REMARK   46  A    between atoms: _111  and  _114
REMARK   47  A    between atoms: _114  and  _115
REMARK   48  A    between atoms: _121  and  _123
REMARK   49  A    between atoms: _123  and  _124
REMARK   50  A    between atoms: _123  and  _126
REMARK   51  A    between atoms: _126  and  _127
REMARK   52  A    between atoms: _132  and  _134
REMARK   53  A    between atoms: _134  and  _135
REMARK   54  A    between atoms: _138  and  _140
REMARK   55  A    between atoms: _140  and  _141
REMARK   56  A    between atoms: _143  and  _145
REMARK   57  A    between atoms: _145  and  _146
REMARK   58  A    between atoms: _145  and  _148
REMARK   59  A    between atoms: _151  and  _153
REMARK   60  A    between atoms: _153  and  _154
REMARK   61  A    between atoms: _153  and  _156
REMARK   62  A    between atoms: _156  and  _157
REMARK   63  A    between atoms: _157  and  _158
REMARK   64  A    between atoms: _158  and  _159
REMARK   65  A    between atoms: _168  and  _170
REMARK   66  A    between atoms: _170  and  _171
REMARK   67  A    between atoms: _170  and  _173
REMARK   68  A    between atoms: _173  and  _174
REMARK   69  A    between atoms: _179  and  _180
REMARK   70  A    between atoms: _182  and  _184
REMARK   71  A    between atoms: _184  and  _185
REMARK   72  A    between atoms: _184  and  _187
REMARK   73  A    between atoms: _187  and  _188
REMARK   74  A    between atoms: _193  and  _194
REMARK   75  A    between atoms: _196  and  _198
REMARK   76  A    between atoms: _198  and  _199
REMARK   77  A    between atoms: _198  and  _201
REMARK   78  A    between atoms: _201  and  _202
REMARK   79  A    between atoms: _207  and  _209
REMARK   80  A    between atoms: _209  and  _210
REMARK   81  A    between atoms: _209  and  _212
REMARK   82  A    between atoms: _212  and  _213
REMARK   83  A    between atoms: _213  and  _214
REMARK   84  A    between atoms: _214  and  _215
REMARK   85  A    between atoms: _224  and  _226
REMARK   86  A    between atoms: _226  and  _227
REMARK   87  A    between atoms: _226  and  _229
REMARK   88  A    between atoms: _229  and  _230
REMARK   89  A    between atoms: _232  and  _234
REMARK   90  A    between atoms: _234  and  _235
REMARK   91  A    between atoms: _234  and  _237
REMARK   92  A    between atoms: _237  and  _238
REMARK   93  A    between atoms: _241  and  _243
REMARK   94  A    between atoms: _243  and  _244
REMARK   95  A    between atoms: _243  and  _246
REMARK   96  A    between atoms: _246  and  _247
REMARK   97  A    between atoms: _250  and  _252
REMARK   98  A    between atoms: _252  and  _253
REMARK   99  A    between atoms: _252  and  _255
REMARK  100  A    between atoms: _255  and  _256
REMARK  101  A    between atoms: _259  and  _261
REMARK  102  A    between atoms: _261  and  _262
REMARK  103  A    between atoms: _261  and  _264
REMARK  104  A    between atoms: _264  and  _265
REMARK  105  A    between atoms: _271  and  _273
REMARK  106  A    between atoms: _273  and  _274
REMARK  107  A    between atoms: _273  and  _276
REMARK  108  A    between atoms: _276  and  _277
REMARK  109  A    between atoms: _279  and  _281
REMARK  110  A    between atoms: _281  and  _282
REMARK  111  A    between atoms: _281  and  _284
REMARK  112  A    between atoms: _284  and  _285
REMARK  113  A    between atoms: _290  and  _291
REMARK  114  A    between atoms: _293  and  _295
REMARK  115  A    between atoms: _295  and  _296
REMARK  116  A    between atoms: _295  and  _298
REMARK  117  A    between atoms: _298  and  _299
REMARK  118  A    between atoms: _303  and  _304
REMARK  119  A    between atoms: _309  and  _311
REMARK  120  A    between atoms: _311  and  _312
REMARK  121  A    between atoms: _311  and  _314
REMARK  122  A    between atoms: _314  and  _315
REMARK  123  A    between atoms: _317  and  _319
REMARK  124  A    between atoms: _319  and  _320
REMARK  125  A    between atoms: _319  and  _322
REMARK  126  A    between atoms: _322  and  _323
REMARK  127  A    between atoms: _323  and  _324
REMARK  128  A    between atoms: _329  and  _331
REMARK  129  A    between atoms: _331  and  _332
REMARK  130  A    between atoms: _331  and  _334
REMARK  131  A    between atoms: _334  and  _335
REMARK  132  A    between atoms: _338  and  _340
REMARK  133  A    between atoms: _340  and  _341
REMARK  134  A    between atoms: _340  and  _343
REMARK  135  A    between atoms: _343  and  _344
REMARK  136  A    between atoms: _347  and  _349
REMARK  137  A    between atoms: _349  and  _350
REMARK  138  A    between atoms: _349  and  _352
REMARK  139  A    between atoms: _352  and  _353
REMARK  140  A    between atoms: _356  and  _358
REMARK  141  A    between atoms: _358  and  _359
REMARK  142  A    between atoms: _358  and  _361
REMARK  143  A    between atoms: _361  and  _362
REMARK  144  A    between atoms: _365  and  _367
REMARK  145  A    between atoms: _367  and  _368
REMARK  146  A    between atoms: _367  and  _370
REMARK  147  A    between atoms: _370  and  _371
REMARK  148  A    between atoms: _376  and  _378
REMARK  149  A    between atoms: _378  and  _379
REMARK  150  A    between atoms: _382  and  _384
REMARK  151  A    between atoms: _384  and  _385
REMARK  152  A    between atoms: _388  and  _390
REMARK  153  A    between atoms: _390  and  _391
REMARK  154  A    between atoms: _390  and  _393
REMARK  155  A    between atoms: _393  and  _394
REMARK  156  A    between atoms: _399  and  _400
REMARK  157  A    between atoms: _402  and  _404
REMARK  158  A    between atoms: _404  and  _405
REMARK  159  A    between atoms: _404  and  _407
REMARK  160  A    between atoms: _407  and  _408
REMARK  161  A    between atoms: _410  and  _412
REMARK  162  A    between atoms: _412  and  _413
REMARK  163  A    between atoms: _412  and  _415
REMARK  164  A    between atoms: _415  and  _416
REMARK  165  A    between atoms: _419  and  _421
REMARK  166  A    between atoms: _421  and  _422
REMARK  167  A    between atoms: _421  and  _424
REMARK  168  A    between atoms: _427  and  _429
REMARK  169  A    between atoms: _429  and  _430
REMARK  170  A    between atoms: _429  and  _432
REMARK  171  A    between atoms: _432  and  _433
REMARK  172  A    between atoms: _439  and  _441
REMARK  173  A    between atoms: _441  and  _442
REMARK  174  A    between atoms: _441  and  _444
REMARK  175  A    between atoms: _444  and  _445
REMARK  176  A    between atoms: _450  and  _452
REMARK  177  A    between atoms: _452  and  _453
REMARK  178  A    between atoms: _456  and  _458
REMARK  179  A    between atoms: _458  and  _459
REMARK  180  A    between atoms: _458  and  _461
REMARK  181  A    between atoms: _461  and  _462
REMARK  182  A    between atoms: _465  and  _467
REMARK  183  A    between atoms: _467  and  _468
REMARK  184  A    between atoms: _470  and  _472
REMARK  185  A    between atoms: _472  and  _473
REMARK  186  A    between atoms: _475  and  _477
REMARK  187  A    between atoms: _477  and  _478
REMARK  188  A    between atoms: _477  and  _480
REMARK  189  A    between atoms: _480  and  _481
REMARK  190  A    between atoms: _484  and  _486
REMARK  191  A    between atoms: _486  and  _487
REMARK  192  A    between atoms: _489  and  _491
REMARK  193  A    between atoms: _491  and  _492
REMARK  194  A    between atoms: _491  and  _494
REMARK  195  A    between atoms: _494  and  _495
REMARK  196  A    between atoms: _497  and  _499
REMARK  197  A    between atoms: _499  and  _500
REMARK  198  A    between atoms: _499  and  _502
REMARK  199  A    between atoms: _502  and  _503
REMARK                            x       y       z     vdW  Elec       q    Type
REMARK                         _______ _______ _______ _____ _____    ______ ____
ROOT
ATOM      1  O   HOH     1      19.572  38.032  65.887  0.00  0.00    +0.000 OA
ENDROOT
TORSDOF 0
REMARK  Name = ../refined-set-2016/4a95/4a95_pocket.pdb
REMARK  199 active torsions:
REMARK  status: ('A' for Active; 'I' for Inactive)
REMARK    1  A    between atoms: _1  and  _3
REMARK    2  A    between atoms: _3  and  _4
REMARK    3  A    between atoms: _3  and  _6
REMARK    4  A    between atoms: _6  and  _7
REMARK    5  A    between atoms: _12  and  _13
REMARK    6  A    between atoms: _15  and  _17
REMARK    7  A    between atoms: _17  and  _18
REMARK    8  A    between atoms: _17  and  _20
REMARK    9  A    between atoms: _23  and  _25
REMARK   10  A    between atoms: _25  and  _26
REMARK   11  A    between atoms: _25  and  _28
REMARK   12  A    between atoms: _28  and  _29
REMARK   13  A    between atoms: _29  and  _30
REMARK   14  A    between atoms: _33  and  _35
REMARK   15  A    between atoms: _35  and  _36
REMARK   16  A    between atoms: _35  and  _38
REMARK   17  A    between atoms: _38  and  _39
REMARK   18  A    between atoms: _42  and  _44
REMARK   19  A    between atoms: _44  and  _45
REMARK   20  A    between atoms: _44  and  _47
REMARK   21  A    between atoms: _47  and  _48
REMARK   22  A    between atoms: _51  and  _53
REMARK   23  A    between atoms: _53  and  _54
REMARK   24  A    between atoms: _53  and  _56
REMARK   25  A    between atoms: _56  and  _57
REMARK   26  A    between atoms: _60  and  _62
REMARK   27  A    between atoms: _62  and  _63
REMARK   28  A    between atoms: _62  and  _65
REMARK   29  A    between atoms: _65  and  _66
REMARK   30  A    between atoms: _71  and  _73
REMARK   31  A    between atoms: _73  and  _74
REMARK   32  A    between atoms: _73  and  _76
REMARK   33  A    between atoms: _76  and  _77
REMARK   34  A    between atoms: _80  and  _82
REMARK   35  A    between atoms: _82  and  _83
REMARK   36  A    between atoms: _82  and  _85
REMARK   37  A    between atoms: _85  and  _86
REMARK   38  A    between atoms: _92  and  _94
REMARK   39  A    between atoms: _94  and  _95
REMARK   40  A    between atoms: _94  and  _97
REMARK   41  A    between atoms: _97  and  _98
REMARK   42  A    between atoms: _98  and  _99
REMARK   43  A    between atoms: _99  and  _100
REMARK   44  A    between atoms: _109  and  _111
REMARK   45  A    between atoms: _111  and  _112
REMARK   46  A    between atoms: _111  and  _114
REMARK   47  A    between atoms: _114  and  _115
REMARK   48  A    between atoms: _121  and  _123
REMARK   49  A    between atoms: _123  and  _124
REMARK   50  A    between atoms: _123  and  _126
REMARK   51  A    between atoms: _126  and  _127
REMARK   52  A    between atoms: _132  and  _134
REMARK   53  A    between atoms: _134  and  _135
REMARK   54  A    between atoms: _138  and  _140
REMARK   55  A    between atoms: _140  and  _141
REMARK   56  A    between atoms: _143  and  _145
REMARK   57  A    between atoms: _145  and  _146
REMARK   58  A    between atoms: _145  and  _148
REMARK   59  A    between atoms: _151  and  _153
REMARK   60  A    between atoms: _153  and  _154
REMARK   61  A    between atoms: _153  and  _156
REMARK   62  A    between atoms: _156  and  _157
REMARK   63  A    between atoms: _157  and  _158
REMARK   64  A    between atoms: _158  and  _159
REMARK   65  A    between atoms: _168  and  _170
REMARK   66  A    between atoms: _170  and  _171
REMARK   67  A    between atoms: _170  and  _173
REMARK   68  A    between atoms: _173  and  _174
REMARK   69  A    between atoms: _179  and  _180
REMARK   70  A    between atoms: _182  and  _184
REMARK   71  A    between atoms: _184  and  _185
REMARK   72  A    between atoms: _184  and  _187
REMARK   73  A    between atoms: _187  and  _188
REMARK   74  A    between atoms: _193  and  _194
REMARK   75  A    between atoms: _196  and  _198
REMARK   76  A    between atoms: _198  and  _199
REMARK   77  A    between atoms: _198  and  _201
REMARK   78  A    between atoms: _201  and  _202
REMARK   79  A    between atoms: _207  and  _209
REMARK   80  A    between atoms: _209  and  _210
REMARK   81  A    between atoms: _209  and  _212
REMARK   82  A    between atoms: _212  and  _213
REMARK   83  A    between atoms: _213  and  _214
REMARK   84  A    between atoms: _214  and  _215
REMARK   85  A    between atoms: _224  and  _226
REMARK   86  A    between atoms: _226  and  _227
REMARK   87  A    between atoms: _226  and  _229
REMARK   88  A    between atoms: _229  and  _230
REMARK   89  A    between atoms: _232  and  _234
REMARK   90  A    between atoms: _234  and  _235
REMARK   91  A    between atoms: _234  and  _237
REMARK   92  A    between atoms: _237  and  _238
REMARK   93  A    between atoms: _241  and  _243
REMARK   94  A    between atoms: _243  and  _244
REMARK   95  A    between atoms: _243  and  _246
REMARK   96  A    between atoms: _246  and  _247
REMARK   97  A    between atoms: _250  and  _252
REMARK   98  A    between atoms: _252  and  _253
REMARK   99  A    between atoms: _252  and  _255
REMARK  100  A    between atoms: _255  and  _256
REMARK  101  A    between atoms: _259  and  _261
REMARK  102  A    between atoms: _261  and  _262
REMARK  103  A    between atoms: _261  and  _264
REMARK  104  A    between atoms: _264  and  _265
REMARK  105  A    between atoms: _271  and  _273
REMARK  106  A    between atoms: _273  and  _274
REMARK  107  A    between atoms: _273  and  _276
REMARK  108  A    between atoms: _276  and  _277
REMARK  109  A    between atoms: _279  and  _281
REMARK  110  A    between atoms: _281  and  _282
REMARK  111  A    between atoms: _281  and  _284
REMARK  112  A    between atoms: _284  and  _285
REMARK  113  A    between atoms: _290  and  _291
REMARK  114  A    between atoms: _293  and  _295
REMARK  115  A    between atoms: _295  and  _296
REMARK  116  A    between atoms: _295  and  _298
REMARK  117  A    between atoms: _298  and  _299
REMARK  118  A    between atoms: _303  and  _304
REMARK  119  A    between atoms: _309  and  _311
REMARK  120  A    between atoms: _311  and  _312
REMARK  121  A    between atoms: _311  and  _314
REMARK  122  A    between atoms: _314  and  _315
REMARK  123  A    between atoms: _317  and  _319
REMARK  124  A    between atoms: _319  and  _320
REMARK  125  A    between atoms: _319  and  _322
REMARK  126  A    between atoms: _322  and  _323
REMARK  127  A    between atoms: _323  and  _324
REMARK  128  A    between atoms: _329  and  _331
REMARK  129  A    between atoms: _331  and  _332
REMARK  130  A    between atoms: _331  and  _334
REMARK  131  A    between atoms: _334  and  _335
REMARK  132  A    between atoms: _338  and  _340
REMARK  133  A    between atoms: _340  and  _341
REMARK  134  A    between atoms: _340  and  _343
REMARK  135  A    between atoms: _343  and  _344
REMARK  136  A    between atoms: _347  and  _349
REMARK  137  A    between atoms: _349  and  _350
REMARK  138  A    between atoms: _349  and  _352
REMARK  139  A    between atoms: _352  and  _353
REMARK  140  A    between atoms: _356  and  _358
REMARK  141  A    between atoms: _358  and  _359
REMARK  142  A    between atoms: _358  and  _361
REMARK  143  A    between atoms: _361  and  _362
REMARK  144  A    between atoms: _365  and  _367
REMARK  145  A    between atoms: _367  and  _368
REMARK  146  A    between atoms: _367  and  _370
REMARK  147  A    between atoms: _370  and  _371
REMARK  148  A    between atoms: _376  and  _378
REMARK  149  A    between atoms: _378  and  _379
REMARK  150  A    between atoms: _382  and  _384
REMARK  151  A    between atoms: _384  and  _385
REMARK  152  A    between atoms: _388  and  _390
REMARK  153  A    between atoms: _390  and  _391
REMARK  154  A    between atoms: _390  and  _393
REMARK  155  A    between atoms: _393  and  _394
REMARK  156  A    between atoms: _399  and  _400
REMARK  157  A    between atoms: _402  and  _404
REMARK  158  A    between atoms: _404  and  _405
REMARK  159  A    between atoms: _404  and  _407
REMARK  160  A    between atoms: _407  and  _408
REMARK  161  A    between atoms: _410  and  _412
REMARK  162  A    between atoms: _412  and  _413
REMARK  163  A    between atoms: _412  and  _415
REMARK  164  A    between atoms: _415  and  _416
REMARK  165  A    between atoms: _419  and  _421
REMARK  166  A    between atoms: _421  and  _422
REMARK  167  A    between atoms: _421  and  _424
REMARK  168  A    between atoms: _427  and  _429
REMARK  169  A    between atoms: _429  and  _430
REMARK  170  A    between atoms: _429  and  _432
REMARK  171  A    between atoms: _432  and  _433
REMARK  172  A    between atoms: _439  and  _441
REMARK  173  A    between atoms: _441  and  _442
REMARK  174  A    between atoms: _441  and  _444
REMARK  175  A    between atoms: _444  and  _445
REMARK  176  A    between atoms: _450  and  _452
REMARK  177  A    between atoms: _452  and  _453
REMARK  178  A    between atoms: _456  and  _458
REMARK  179  A    between atoms: _458  and  _459
REMARK  180  A    between atoms: _458  and  _461
REMARK  181  A    between atoms: _461  and  _462
REMARK  182  A    between atoms: _465  and  _467
REMARK  183  A    between atoms: _467  and  _468
REMARK  184  A    between atoms: _470  and  _472
REMARK  185  A    between atoms: _472  and  _473
REMARK  186  A    between atoms: _475  and  _477
REMARK  187  A    between atoms: _477  and  _478
REMARK  188  A    between atoms: _477  and  _480
REMARK  189  A    between atoms: _480  and  _481
REMARK  190  A    between atoms: _484  and  _486
REMARK  191  A    between atoms: _486  and  _487
REMARK  192  A    between atoms: _489  and  _491
REMARK  193  A    between atoms: _491  and  _492
REMARK  194  A    between atoms: _491  and  _494
REMARK  195  A    between atoms: _494  and  _495
REMARK  196  A    between atoms: _497  and  _499
REMARK  197  A    between atoms: _499  and  _500
REMARK  198  A    between atoms: _499  and  _502
REMARK  199  A    between atoms: _502  and  _503
REMARK                            x       y       z     vdW  Elec       q    Type
REMARK                         _______ _______ _______ _____ _____    ______ ____
ROOT
ATOM      1  O   HOH     1      23.240  44.963  58.149  0.00  0.00    +0.000 OA
ENDROOT
TORSDOF 0
REMARK  Name = ../refined-set-2016/4a95/4a95_pocket.pdb
REMARK  199 active torsions:
REMARK  status: ('A' for Active; 'I' for Inactive)
REMARK    1  A    between atoms: _1  and  _3
REMARK    2  A    between atoms: _3  and  _4
REMARK    3  A    between atoms: _3  and  _6
REMARK    4  A    between atoms: _6  and  _7
REMARK    5  A    between atoms: _12  and  _13
REMARK    6  A    between atoms: _15  and  _17
REMARK    7  A    between atoms: _17  and  _18
REMARK    8  A    between atoms: _17  and  _20
REMARK    9  A    between atoms: _23  and  _25
REMARK   10  A    between atoms: _25  and  _26
REMARK   11  A    between atoms: _25  and  _28
REMARK   12  A    between atoms: _28  and  _29
REMARK   13  A    between atoms: _29  and  _30
REMARK   14  A    between atoms: _33  and  _35
REMARK   15  A    between atoms: _35  and  _36
REMARK   16  A    between atoms: _35  and  _38
REMARK   17  A    between atoms: _38  and  _39
REMARK   18  A    between atoms: _42  and  _44
REMARK   19  A    between atoms: _44  and  _45
REMARK   20  A    between atoms: _44  and  _47
REMARK   21  A    between atoms: _47  and  _48
REMARK   22  A    between atoms: _51  and  _53
REMARK   23  A    between atoms: _53  and  _54
REMARK   24  A    between atoms: _53  and  _56
REMARK   25  A    between atoms: _56  and  _57
REMARK   26  A    between atoms: _60  and  _62
REMARK   27  A    between atoms: _62  and  _63
REMARK   28  A    between atoms: _62  and  _65
REMARK   29  A    between atoms: _65  and  _66
REMARK   30  A    between atoms: _71  and  _73
REMARK   31  A    between atoms: _73  and  _74
REMARK   32  A    between atoms: _73  and  _76
REMARK   33  A    between atoms: _76  and  _77
REMARK   34  A    between atoms: _80  and  _82
REMARK   35  A    between atoms: _82  and  _83
REMARK   36  A    between atoms: _82  and  _85
REMARK   37  A    between atoms: _85  and  _86
REMARK   38  A    between atoms: _92  and  _94
REMARK   39  A    between atoms: _94  and  _95
REMARK   40  A    between atoms: _94  and  _97
REMARK   41  A    between atoms: _97  and  _98
REMARK   42  A    between atoms: _98  and  _99
REMARK   43  A    between atoms: _99  and  _100
REMARK   44  A    between atoms: _109  and  _111
REMARK   45  A    between atoms: _111  and  _112
REMARK   46  A    between atoms: _111  and  _114
REMARK   47  A    between atoms: _114  and  _115
REMARK   48  A    between atoms: _121  and  _123
REMARK   49  A    between atoms: _123  and  _124
REMARK   50  A    between atoms: _123  and  _126
REMARK   51  A    between atoms: _126  and  _127
REMARK   52  A    between atoms: _132  and  _134
REMARK   53  A    between atoms: _134  and  _135
REMARK   54  A    between atoms: _138  and  _140
REMARK   55  A    between atoms: _140  and  _141
REMARK   56  A    between atoms: _143  and  _145
REMARK   57  A    between atoms: _145  and  _146
REMARK   58  A    between atoms: _145  and  _148
REMARK   59  A    between atoms: _151  and  _153
REMARK   60  A    between atoms: _153  and  _154
REMARK   61  A    between atoms: _153  and  _156
REMARK   62  A    between atoms: _156  and  _157
REMARK   63  A    between atoms: _157  and  _158
REMARK   64  A    between atoms: _158  and  _159
REMARK   65  A    between atoms: _168  and  _170
REMARK   66  A    between atoms: _170  and  _171
REMARK   67  A    between atoms: _170  and  _173
REMARK   68  A    between atoms: _173  and  _174
REMARK   69  A    between atoms: _179  and  _180
REMARK   70  A    between atoms: _182  and  _184
REMARK   71  A    between atoms: _184  and  _185
REMARK   72  A    between atoms: _184  and  _187
REMARK   73  A    between atoms: _187  and  _188
REMARK   74  A    between atoms: _193  and  _194
REMARK   75  A    between atoms: _196  and  _198
REMARK   76  A    between atoms: _198  and  _199
REMARK   77  A    between atoms: _198  and  _201
REMARK   78  A    between atoms: _201  and  _202
REMARK   79  A    between atoms: _207  and  _209
REMARK   80  A    between atoms: _209  and  _210
REMARK   81  A    between atoms: _209  and  _212
REMARK   82  A    between atoms: _212  and  _213
REMARK   83  A    between atoms: _213  and  _214
REMARK   84  A    between atoms: _214  and  _215
REMARK   85  A    between atoms: _224  and  _226
REMARK   86  A    between atoms: _226  and  _227
REMARK   87  A    between atoms: _226  and  _229
REMARK   88  A    between atoms: _229  and  _230
REMARK   89  A    between atoms: _232  and  _234
REMARK   90  A    between atoms: _234  and  _235
REMARK   91  A    between atoms: _234  and  _237
REMARK   92  A    between atoms: _237  and  _238
REMARK   93  A    between atoms: _241  and  _243
REMARK   94  A    between atoms: _243  and  _244
REMARK   95  A    between atoms: _243  and  _246
REMARK   96  A    between atoms: _246  and  _247
REMARK   97  A    between atoms: _250  and  _252
REMARK   98  A    between atoms: _252  and  _253
REMARK   99  A    between atoms: _252  and  _255
REMARK  100  A    between atoms: _255  and  _256
REMARK  101  A    between atoms: _259  and  _261
REMARK  102  A    between atoms: _261  and  _262
REMARK  103  A    between atoms: _261  and  _264
REMARK  104  A    between atoms: _264  and  _265
REMARK  105  A    between atoms: _271  and  _273
REMARK  106  A    between atoms: _273  and  _274
REMARK  107  A    between atoms: _273  and  _276
REMARK  108  A    between atoms: _276  and  _277
REMARK  109  A    between atoms: _279  and  _281
REMARK  110  A    between atoms: _281  and  _282
REMARK  111  A    between atoms: _281  and  _284
REMARK  112  A    between atoms: _284  and  _285
REMARK  113  A    between atoms: _290  and  _291
REMARK  114  A    between atoms: _293  and  _295
REMARK  115  A    between atoms: _295  and  _296
REMARK  116  A    between atoms: _295  and  _298
REMARK  117  A    between atoms: _298  and  _299
REMARK  118  A    between atoms: _303  and  _304
REMARK  119  A    between atoms: _309  and  _311
REMARK  120  A    between atoms: _311  and  _312
REMARK  121  A    between atoms: _311  and  _314
REMARK  122  A    between atoms: _314  and  _315
REMARK  123  A    between atoms: _317  and  _319
REMARK  124  A    between atoms: _319  and  _320
REMARK  125  A    between atoms: _319  and  _322
REMARK  126  A    between atoms: _322  and  _323
REMARK  127  A    between atoms: _323  and  _324
REMARK  128  A    between atoms: _329  and  _331
REMARK  129  A    between atoms: _331  and  _332
REMARK  130  A    between atoms: _331  and  _334
REMARK  131  A    between atoms: _334  and  _335
REMARK  132  A    between atoms: _338  and  _340
REMARK  133  A    between atoms: _340  and  _341
REMARK  134  A    between atoms: _340  and  _343
REMARK  135  A    between atoms: _343  and  _344
REMARK  136  A    between atoms: _347  and  _349
REMARK  137  A    between atoms: _349  and  _350
REMARK  138  A    between atoms: _349  and  _352
REMARK  139  A    between atoms: _352  and  _353
REMARK  140  A    between atoms: _356  and  _358
REMARK  141  A    between atoms: _358  and  _359
REMARK  142  A    between atoms: _358  and  _361
REMARK  143  A    between atoms: _361  and  _362
REMARK  144  A    between atoms: _365  and  _367
REMARK  145  A    between atoms: _367  and  _368
REMARK  146  A    between atoms: _367  and  _370
REMARK  147  A    between atoms: _370  and  _371
REMARK  148  A    between atoms: _376  and  _378
REMARK  149  A    between atoms: _378  and  _379
REMARK  150  A    between atoms: _382  and  _384
REMARK  151  A    between atoms: _384  and  _385
REMARK  152  A    between atoms: _388  and  _390
REMARK  153  A    between atoms: _390  and  _391
REMARK  154  A    between atoms: _390  and  _393
REMARK  155  A    between atoms: _393  and  _394
REMARK  156  A    between atoms: _399  and  _400
REMARK  157  A    between atoms: _402  and  _404
REMARK  158  A    between atoms: _404  and  _405
REMARK  159  A    between atoms: _404  and  _407
REMARK  160  A    between atoms: _407  and  _408
REMARK  161  A    between atoms: _410  and  _412
REMARK  162  A    between atoms: _412  and  _413
REMARK  163  A    between atoms: _412  and  _415
REMARK  164  A    between atoms: _415  and  _416
REMARK  165  A    between atoms: _419  and  _421
REMARK  166  A    between atoms: _421  and  _422
REMARK  167  A    between atoms: _421  and  _424
REMARK  168  A    between atoms: _427  and  _429
REMARK  169  A    between atoms: _429  and  _430
REMARK  170  A    between atoms: _429  and  _432
REMARK  171  A    between atoms: _432  and  _433
REMARK  172  A    between atoms: _439  and  _441
REMARK  173  A    between atoms: _441  and  _442
REMARK  174  A    between atoms: _441  and  _444
REMARK  175  A    between atoms: _444  and  _445
REMARK  176  A    between atoms: _450  and  _452
REMARK  177  A    between atoms: _452  and  _453
REMARK  178  A    between atoms: _456  and  _458
REMARK  179  A    between atoms: _458  and  _459
REMARK  180  A    between atoms: _458  and  _461
REMARK  181  A    between atoms: _461  and  _462
REMARK  182  A    between atoms: _465  and  _467
REMARK  183  A    between atoms: _467  and  _468
REMARK  184  A    between atoms: _470  and  _472
REMARK  185  A    between atoms: _472  and  _473
REMARK  186  A    between atoms: _475  and  _477
REMARK  187  A    between atoms: _477  and  _478
REMARK  188  A    between atoms: _477  and  _480
REMARK  189  A    between atoms: _480  and  _481
REMARK  190  A    between atoms: _484  and  _486
REMARK  191  A    between atoms: _486  and  _487
REMARK  192  A    between atoms: _489  and  _491
REMARK  193  A    between atoms: _491  and  _492
REMARK  194  A    between atoms: _491  and  _494
REMARK  195  A    between atoms: _494  and  _495
REMARK  196  A    between atoms: _497  and  _499
REMARK  197  A    between atoms: _499  and  _500
REMARK  198  A    between atoms: _499  and  _502
REMARK  199  A    between atoms: _502  and  _503
REMARK                            x       y       z     vdW  Elec       q    Type
REMARK                         _______ _______ _______ _____ _____    ______ ____
ROOT
ATOM      1  O   HOH     1      27.557  43.349  60.650  0.00  0.00    +0.000 OA
ENDROOT
TORSDOF 0
REMARK  Name = ../refined-set-2016/4a95/4a95_pocket.pdb
REMARK  199 active torsions:
REMARK  status: ('A' for Active; 'I' for Inactive)
REMARK    1  A    between atoms: _1  and  _3
REMARK    2  A    between atoms: _3  and  _4
REMARK    3  A    between atoms: _3  and  _6
REMARK    4  A    between atoms: _6  and  _7
REMARK    5  A    between atoms: _12  and  _13
REMARK    6  A    between atoms: _15  and  _17
REMARK    7  A    between atoms: _17  and  _18
REMARK    8  A    between atoms: _17  and  _20
REMARK    9  A    between atoms: _23  and  _25
REMARK   10  A    between atoms: _25  and  _26
REMARK   11  A    between atoms: _25  and  _28
REMARK   12  A    between atoms: _28  and  _29
REMARK   13  A    between atoms: _29  and  _30
REMARK   14  A    between atoms: _33  and  _35
REMARK   15  A    between atoms: _35  and  _36
REMARK   16  A    between atoms: _35  and  _38
REMARK   17  A    between atoms: _38  and  _39
REMARK   18  A    between atoms: _42  and  _44
REMARK   19  A    between atoms: _44  and  _45
REMARK   20  A    between atoms: _44  and  _47
REMARK   21  A    between atoms: _47  and  _48
REMARK   22  A    between atoms: _51  and  _53
REMARK   23  A    between atoms: _53  and  _54
REMARK   24  A    between atoms: _53  and  _56
REMARK   25  A    between atoms: _56  and  _57
REMARK   26  A    between atoms: _60  and  _62
REMARK   27  A    between atoms: _62  and  _63
REMARK   28  A    between atoms: _62  and  _65
REMARK   29  A    between atoms: _65  and  _66
REMARK   30  A    between atoms: _71  and  _73
REMARK   31  A    between atoms: _73  and  _74
REMARK   32  A    between atoms: _73  and  _76
REMARK   33  A    between atoms: _76  and  _77
REMARK   34  A    between atoms: _80  and  _82
REMARK   35  A    between atoms: _82  and  _83
REMARK   36  A    between atoms: _82  and  _85
REMARK   37  A    between atoms: _85  and  _86
REMARK   38  A    between atoms: _92  and  _94
REMARK   39  A    between atoms: _94  and  _95
REMARK   40  A    between atoms: _94  and  _97
REMARK   41  A    between atoms: _97  and  _98
REMARK   42  A    between atoms: _98  and  _99
REMARK   43  A    between atoms: _99  and  _100
REMARK   44  A    between atoms: _109  and  _111
REMARK   45  A    between atoms: _111  and  _112
REMARK   46  A    between atoms: _111  and  _114
REMARK   47  A    between atoms: _114  and  _115
REMARK   48  A    between atoms: _121  and  _123
REMARK   49  A    between atoms: _123  and  _124
REMARK   50  A    between atoms: _123  and  _126
REMARK   51  A    between atoms: _126  and  _127
REMARK   52  A    between atoms: _132  and  _134
REMARK   53  A    between atoms: _134  and  _135
REMARK   54  A    between atoms: _138  and  _140
REMARK   55  A    between atoms: _140  and  _141
REMARK   56  A    between atoms: _143  and  _145
REMARK   57  A    between atoms: _145  and  _146
REMARK   58  A    between atoms: _145  and  _148
REMARK   59  A    between atoms: _151  and  _153
REMARK   60  A    between atoms: _153  and  _154
REMARK   61  A    between atoms: _153  and  _156
REMARK   62  A    between atoms: _156  and  _157
REMARK   63  A    between atoms: _157  and  _158
REMARK   64  A    between atoms: _158  and  _159
REMARK   65  A    between atoms: _168  and  _170
REMARK   66  A    between atoms: _170  and  _171
REMARK   67  A    between atoms: _170  and  _173
REMARK   68  A    between atoms: _173  and  _174
REMARK   69  A    between atoms: _179  and  _180
REMARK   70  A    between atoms: _182  and  _184
REMARK   71  A    between atoms: _184  and  _185
REMARK   72  A    between atoms: _184  and  _187
REMARK   73  A    between atoms: _187  and  _188
REMARK   74  A    between atoms: _193  and  _194
REMARK   75  A    between atoms: _196  and  _198
REMARK   76  A    between atoms: _198  and  _199
REMARK   77  A    between atoms: _198  and  _201
REMARK   78  A    between atoms: _201  and  _202
REMARK   79  A    between atoms: _207  and  _209
REMARK   80  A    between atoms: _209  and  _210
REMARK   81  A    between atoms: _209  and  _212
REMARK   82  A    between atoms: _212  and  _213
REMARK   83  A    between atoms: _213  and  _214
REMARK   84  A    between atoms: _214  and  _215
REMARK   85  A    between atoms: _224  and  _226
REMARK   86  A    between atoms: _226  and  _227
REMARK   87  A    between atoms: _226  and  _229
REMARK   88  A    between atoms: _229  and  _230
REMARK   89  A    between atoms: _232  and  _234
REMARK   90  A    between atoms: _234  and  _235
REMARK   91  A    between atoms: _234  and  _237
REMARK   92  A    between atoms: _237  and  _238
REMARK   93  A    between atoms: _241  and  _243
REMARK   94  A    between atoms: _243  and  _244
REMARK   95  A    between atoms: _243  and  _246
REMARK   96  A    between atoms: _246  and  _247
REMARK   97  A    between atoms: _250  and  _252
REMARK   98  A    between atoms: _252  and  _253
REMARK   99  A    between atoms: _252  and  _255
REMARK  100  A    between atoms: _255  and  _256
REMARK  101  A    between atoms: _259  and  _261
REMARK  102  A    between atoms: _261  and  _262
REMARK  103  A    between atoms: _261  and  _264
REMARK  104  A    between atoms: _264  and  _265
REMARK  105  A    between atoms: _271  and  _273
REMARK  106  A    between atoms: _273  and  _274
REMARK  107  A    between atoms: _273  and  _276
REMARK  108  A    between atoms: _276  and  _277
REMARK  109  A    between atoms: _279  and  _281
REMARK  110  A    between atoms: _281  and  _282
REMARK  111  A    between atoms: _281  and  _284
REMARK  112  A    between atoms: _284  and  _285
REMARK  113  A    between atoms: _290  and  _291
REMARK  114  A    between atoms: _293  and  _295
REMARK  115  A    between atoms: _295  and  _296
REMARK  116  A    between atoms: _295  and  _298
REMARK  117  A    between atoms: _298  and  _299
REMARK  118  A    between atoms: _303  and  _304
REMARK  119  A    between atoms: _309  and  _311
REMARK  120  A    between atoms: _311  and  _312
REMARK  121  A    between atoms: _311  and  _314
REMARK  122  A    between atoms: _314  and  _315
REMARK  123  A    between atoms: _317  and  _319
REMARK  124  A    between atoms: _319  and  _320
REMARK  125  A    between atoms: _319  and  _322
REMARK  126  A    between atoms: _322  and  _323
REMARK  127  A    between atoms: _323  and  _324
REMARK  128  A    between atoms: _329  and  _331
REMARK  129  A    between atoms: _331  and  _332
REMARK  130  A    between atoms: _331  and  _334
REMARK  131  A    between atoms: _334  and  _335
REMARK  132  A    between atoms: _338  and  _340
REMARK  133  A    between atoms: _340  and  _341
REMARK  134  A    between atoms: _340  and  _343
REMARK  135  A    between atoms: _343  and  _344
REMARK  136  A    between atoms: _347  and  _349
REMARK  137  A    between atoms: _349  and  _350
REMARK  138  A    between atoms: _349  and  _352
REMARK  139  A    between atoms: _352  and  _353
REMARK  140  A    between atoms: _356  and  _358
REMARK  141  A    between atoms: _358  and  _359
REMARK  142  A    between atoms: _358  and  _361
REMARK  143  A    between atoms: _361  and  _362
REMARK  144  A    between atoms: _365  and  _367
REMARK  145  A    between atoms: _367  and  _368
REMARK  146  A    between atoms: _367  and  _370
REMARK  147  A    between atoms: _370  and  _371
REMARK  148  A    between atoms: _376  and  _378
REMARK  149  A    between atoms: _378  and  _379
REMARK  150  A    between atoms: _382  and  _384
REMARK  151  A    between atoms: _384  and  _385
REMARK  152  A    between atoms: _388  and  _390
REMARK  153  A    between atoms: _390  and  _391
REMARK  154  A    between atoms: _390  and  _393
REMARK  155  A    between atoms: _393  and  _394
REMARK  156  A    between atoms: _399  and  _400
REMARK  157  A    between atoms: _402  and  _404
REMARK  158  A    between atoms: _404  and  _405
REMARK  159  A    between atoms: _404  and  _407
REMARK  160  A    between atoms: _407  and  _408
REMARK  161  A    between atoms: _410  and  _412
REMARK  162  A    between atoms: _412  and  _413
REMARK  163  A    between atoms: _412  and  _415
REMARK  164  A    between atoms: _415  and  _416
REMARK  165  A    between atoms: _419  and  _421
REMARK  166  A    between atoms: _421  and  _422
REMARK  167  A    between atoms: _421  and  _424
REMARK  168  A    between atoms: _427  and  _429
REMARK  169  A    between atoms: _429  and  _430
REMARK  170  A    between atoms: _429  and  _432
REMARK  171  A    between atoms: _432  and  _433
REMARK  172  A    between atoms: _439  and  _441
REMARK  173  A    between atoms: _441  and  _442
REMARK  174  A    between atoms: _441  and  _444
REMARK  175  A    between atoms: _444  and  _445
REMARK  176  A    between atoms: _450  and  _452
REMARK  177  A    between atoms: _452  and  _453
REMARK  178  A    between atoms: _456  and  _458
REMARK  179  A    between atoms: _458  and  _459
REMARK  180  A    between atoms: _458  and  _461
REMARK  181  A    between atoms: _461  and  _462
REMARK  182  A    between atoms: _465  and  _467
REMARK  183  A    between atoms: _467  and  _468
REMARK  184  A    between atoms: _470  and  _472
REMARK  185  A    between atoms: _472  and  _473
REMARK  186  A    between atoms: _475  and  _477
REMARK  187  A    between atoms: _477  and  _478
REMARK  188  A    between atoms: _477  and  _480
REMARK  189  A    between atoms: _480  and  _481
REMARK  190  A    between atoms: _484  and  _486
REMARK  191  A    between atoms: _486  and  _487
REMARK  192  A    between atoms: _489  and  _491
REMARK  193  A    between atoms: _491  and  _492
REMARK  194  A    between atoms: _491  and  _494
REMARK  195  A    between atoms: _494  and  _495
REMARK  196  A    between atoms: _497  and  _499
REMARK  197  A    between atoms: _499  and  _500
REMARK  198  A    between atoms: _499  and  _502
REMARK  199  A    between atoms: _502  and  _503
REMARK                            x       y       z     vdW  Elec       q    Type
REMARK                         _______ _______ _______ _____ _____    ______ ____
ROOT
ATOM      1  O   HOH     1      22.594  48.767  58.487  0.00  0.00    +0.000 OA
ENDROOT
TORSDOF 0
REMARK  Name = ../refined-set-2016/4a95/4a95_pocket.pdb
REMARK  199 active torsions:
REMARK  status: ('A' for Active; 'I' for Inactive)
REMARK    1  A    between atoms: _1  and  _3
REMARK    2  A    between atoms: _3  and  _4
REMARK    3  A    between atoms: _3  and  _6
REMARK    4  A    between atoms: _6  and  _7
REMARK    5  A    between atoms: _12  and  _13
REMARK    6  A    between atoms: _15  and  _17
REMARK    7  A    between atoms: _17  and  _18
REMARK    8  A    between atoms: _17  and  _20
REMARK    9  A    between atoms: _23  and  _25
REMARK   10  A    between atoms: _25  and  _26
REMARK   11  A    between atoms: _25  and  _28
REMARK   12  A    between atoms: _28  and  _29
REMARK   13  A    between atoms: _29  and  _30
REMARK   14  A    between atoms: _33  and  _35
REMARK   15  A    between atoms: _35  and  _36
REMARK   16  A    between atoms: _35  and  _38
REMARK   17  A    between atoms: _38  and  _39
REMARK   18  A    between atoms: _42  and  _44
REMARK   19  A    between atoms: _44  and  _45
REMARK   20  A    between atoms: _44  and  _47
REMARK   21  A    between atoms: _47  and  _48
REMARK   22  A    between atoms: _51  and  _53
REMARK   23  A    between atoms: _53  and  _54
REMARK   24  A    between atoms: _53  and  _56
REMARK   25  A    between atoms: _56  and  _57
REMARK   26  A    between atoms: _60  and  _62
REMARK   27  A    between atoms: _62  and  _63
REMARK   28  A    between atoms: _62  and  _65
REMARK   29  A    between atoms: _65  and  _66
REMARK   30  A    between atoms: _71  and  _73
REMARK   31  A    between atoms: _73  and  _74
REMARK   32  A    between atoms: _73  and  _76
REMARK   33  A    between atoms: _76  and  _77
REMARK   34  A    between atoms: _80  and  _82
REMARK   35  A    between atoms: _82  and  _83
REMARK   36  A    between atoms: _82  and  _85
REMARK   37  A    between atoms: _85  and  _86
REMARK   38  A    between atoms: _92  and  _94
REMARK   39  A    between atoms: _94  and  _95
REMARK   40  A    between atoms: _94  and  _97
REMARK   41  A    between atoms: _97  and  _98
REMARK   42  A    between atoms: _98  and  _99
REMARK   43  A    between atoms: _99  and  _100
REMARK   44  A    between atoms: _109  and  _111
REMARK   45  A    between atoms: _111  and  _112
REMARK   46  A    between atoms: _111  and  _114
REMARK   47  A    between atoms: _114  and  _115
REMARK   48  A    between atoms: _121  and  _123
REMARK   49  A    between atoms: _123  and  _124
REMARK   50  A    between atoms: _123  and  _126
REMARK   51  A    between atoms: _126  and  _127
REMARK   52  A    between atoms: _132  and  _134
REMARK   53  A    between atoms: _134  and  _135
REMARK   54  A    between atoms: _138  and  _140
REMARK   55  A    between atoms: _140  and  _141
REMARK   56  A    between atoms: _143  and  _145
REMARK   57  A    between atoms: _145  and  _146
REMARK   58  A    between atoms: _145  and  _148
REMARK   59  A    between atoms: _151  and  _153
REMARK   60  A    between atoms: _153  and  _154
REMARK   61  A    between atoms: _153  and  _156
REMARK   62  A    between atoms: _156  and  _157
REMARK   63  A    between atoms: _157  and  _158
REMARK   64  A    between atoms: _158  and  _159
REMARK   65  A    between atoms: _168  and  _170
REMARK   66  A    between atoms: _170  and  _171
REMARK   67  A    between atoms: _170  and  _173
REMARK   68  A    between atoms: _173  and  _174
REMARK   69  A    between atoms: _179  and  _180
REMARK   70  A    between atoms: _182  and  _184
REMARK   71  A    between atoms: _184  and  _185
REMARK   72  A    between atoms: _184  and  _187
REMARK   73  A    between atoms: _187  and  _188
REMARK   74  A    between atoms: _193  and  _194
REMARK   75  A    between atoms: _196  and  _198
REMARK   76  A    between atoms: _198  and  _199
REMARK   77  A    between atoms: _198  and  _201
REMARK   78  A    between atoms: _201  and  _202
REMARK   79  A    between atoms: _207  and  _209
REMARK   80  A    between atoms: _209  and  _210
REMARK   81  A    between atoms: _209  and  _212
REMARK   82  A    between atoms: _212  and  _213
REMARK   83  A    between atoms: _213  and  _214
REMARK   84  A    between atoms: _214  and  _215
REMARK   85  A    between atoms: _224  and  _226
REMARK   86  A    between atoms: _226  and  _227
REMARK   87  A    between atoms: _226  and  _229
REMARK   88  A    between atoms: _229  and  _230
REMARK   89  A    between atoms: _232  and  _234
REMARK   90  A    between atoms: _234  and  _235
REMARK   91  A    between atoms: _234  and  _237
REMARK   92  A    between atoms: _237  and  _238
REMARK   93  A    between atoms: _241  and  _243
REMARK   94  A    between atoms: _243  and  _244
REMARK   95  A    between atoms: _243  and  _246
REMARK   96  A    between atoms: _246  and  _247
REMARK   97  A    between atoms: _250  and  _252
REMARK   98  A    between atoms: _252  and  _253
REMARK   99  A    between atoms: _252  and  _255
REMARK  100  A    between atoms: _255  and  _256
REMARK  101  A    between atoms: _259  and  _261
REMARK  102  A    between atoms: _261  and  _262
REMARK  103  A    between atoms: _261  and  _264
REMARK  104  A    between atoms: _264  and  _265
REMARK  105  A    between atoms: _271  and  _273
REMARK  106  A    between atoms: _273  and  _274
REMARK  107  A    between atoms: _273  and  _276
REMARK  108  A    between atoms: _276  and  _277
REMARK  109  A    between atoms: _279  and  _281
REMARK  110  A    between atoms: _281  and  _282
REMARK  111  A    between atoms: _281  and  _284
REMARK  112  A    between atoms: _284  and  _285
REMARK  113  A    between atoms: _290  and  _291
REMARK  114  A    between atoms: _293  and  _295
REMARK  115  A    between atoms: _295  and  _296
REMARK  116  A    between atoms: _295  and  _298
REMARK  117  A    between atoms: _298  and  _299
REMARK  118  A    between atoms: _303  and  _304
REMARK  119  A    between atoms: _309  and  _311
REMARK  120  A    between atoms: _311  and  _312
REMARK  121  A    between atoms: _311  and  _314
REMARK  122  A    between atoms: _314  and  _315
REMARK  123  A    between atoms: _317  and  _319
REMARK  124  A    between atoms: _319  and  _320
REMARK  125  A    between atoms: _319  and  _322
REMARK  126  A    between atoms: _322  and  _323
REMARK  127  A    between atoms: _323  and  _324
REMARK  128  A    between atoms: _329  and  _331
REMARK  129  A    between atoms: _331  and  _332
REMARK  130  A    between atoms: _331  and  _334
REMARK  131  A    between atoms: _334  and  _335
REMARK  132  A    between atoms: _338  and  _340
REMARK  133  A    between atoms: _340  and  _341
REMARK  134  A    between atoms: _340  and  _343
REMARK  135  A    between atoms: _343  and  _344
REMARK  136  A    between atoms: _347  and  _349
REMARK  137  A    between atoms: _349  and  _350
REMARK  138  A    between atoms: _349  and  _352
REMARK  139  A    between atoms: _352  and  _353
REMARK  140  A    between atoms: _356  and  _358
REMARK  141  A    between atoms: _358  and  _359
REMARK  142  A    between atoms: _358  and  _361
REMARK  143  A    between atoms: _361  and  _362
REMARK  144  A    between atoms: _365  and  _367
REMARK  145  A    between atoms: _367  and  _368
REMARK  146  A    between atoms: _367  and  _370
REMARK  147  A    between atoms: _370  and  _371
REMARK  148  A    between atoms: _376  and  _378
REMARK  149  A    between atoms: _378  and  _379
REMARK  150  A    between atoms: _382  and  _384
REMARK  151  A    between atoms: _384  and  _385
REMARK  152  A    between atoms: _388  and  _390
REMARK  153  A    between atoms: _390  and  _391
REMARK  154  A    between atoms: _390  and  _393
REMARK  155  A    between atoms: _393  and  _394
REMARK  156  A    between atoms: _399  and  _400
REMARK  157  A    between atoms: _402  and  _404
REMARK  158  A    between atoms: _404  and  _405
REMARK  159  A    between atoms: _404  and  _407
REMARK  160  A    between atoms: _407  and  _408
REMARK  161  A    between atoms: _410  and  _412
REMARK  162  A    between atoms: _412  and  _413
REMARK  163  A    between atoms: _412  and  _415
REMARK  164  A    between atoms: _415  and  _416
REMARK  165  A    between atoms: _419  and  _421
REMARK  166  A    between atoms: _421  and  _422
REMARK  167  A    between atoms: _421  and  _424
REMARK  168  A    between atoms: _427  and  _429
REMARK  169  A    between atoms: _429  and  _430
REMARK  170  A    between atoms: _429  and  _432
REMARK  171  A    between atoms: _432  and  _433
REMARK  172  A    between atoms: _439  and  _441
REMARK  173  A    between atoms: _441  and  _442
REMARK  174  A    between atoms: _441  and  _444
REMARK  175  A    between atoms: _444  and  _445
REMARK  176  A    between atoms: _450  and  _452
REMARK  177  A    between atoms: _452  and  _453
REMARK  178  A    between atoms: _456  and  _458
REMARK  179  A    between atoms: _458  and  _459
REMARK  180  A    between atoms: _458  and  _461
REMARK  181  A    between atoms: _461  and  _462
REMARK  182  A    between atoms: _465  and  _467
REMARK  183  A    between atoms: _467  and  _468
REMARK  184  A    between atoms: _470  and  _472
REMARK  185  A    between atoms: _472  and  _473
REMARK  186  A    between atoms: _475  and  _477
REMARK  187  A    between atoms: _477  and  _478
REMARK  188  A    between atoms: _477  and  _480
REMARK  189  A    between atoms: _480  and  _481
REMARK  190  A    between atoms: _484  and  _486
REMARK  191  A    between atoms: _486  and  _487
REMARK  192  A    between atoms: _489  and  _491
REMARK  193  A    between atoms: _491  and  _492
REMARK  194  A    between atoms: _491  and  _494
REMARK  195  A    between atoms: _494  and  _495
REMARK  196  A    between atoms: _497  and  _499
REMARK  197  A    between atoms: _499  and  _500
REMARK  198  A    between atoms: _499  and  _502
REMARK  199  A    between atoms: _502  and  _503
REMARK                            x       y       z     vdW  Elec       q    Type
REMARK                         _______ _______ _______ _____ _____    ______ ____
ROOT
ATOM      1  O   HOH     1      33.739  48.329  64.075  0.00  0.00    +0.000 OA
ENDROOT
TORSDOF 0
