REMARK  Name = ../refined-set-2016/3ibn/3ibn_pocket.pdb
REMARK  160 active torsions:
REMARK  status: ('A' for Active; 'I' for Inactive)
REMARK    1  A    between atoms: _1  and  _3
REMARK    2  A    between atoms: _3  and  _4
REMARK    3  A    between atoms: _3  and  _6
REMARK    4  A    between atoms: _6  and  _7
REMARK    5  A    between atoms: _17  and  _19
REMARK    6  A    between atoms: _19  and  _20
REMARK    7  A    between atoms: _19  and  _22
REMARK    8  A    between atoms: _22  and  _23
REMARK    9  A    between atoms: _28  and  _29
REMARK   10  A    between atoms: _31  and  _33
REMARK   11  A    between atoms: _33  and  _34
REMARK   12  A    between atoms: _33  and  _36
REMARK   13  A    between atoms: _36  and  _37
REMARK   14  A    between atoms: _40  and  _41
REMARK   15  A    between atoms: _46  and  _48
REMARK   16  A    between atoms: _48  and  _49
REMARK   17  A    between atoms: _48  and  _51
REMARK   18  A    between atoms: _51  and  _52
REMARK   19  A    between atoms: _57  and  _59
REMARK   20  A    between atoms: _59  and  _60
REMARK   21  A    between atoms: _63  and  _65
REMARK   22  A    between atoms: _65  and  _66
REMARK   23  A    between atoms: _65  and  _68
REMARK   24  A    between atoms: _68  and  _69
REMARK   25  A    between atoms: _74  and  _76
REMARK   26  A    between atoms: _76  and  _77
REMARK   27  A    between atoms: _76  and  _79
REMARK   28  A    between atoms: _79  and  _80
REMARK   29  A    between atoms: _83  and  _85
REMARK   30  A    between atoms: _85  and  _86
REMARK   31  A    between atoms: _85  and  _88
REMARK   32  A    between atoms: _88  and  _89
REMARK   33  A    between atoms: _89  and  _90
REMARK   34  A    between atoms: _95  and  _97
REMARK   35  A    between atoms: _97  and  _98
REMARK   36  A    between atoms: _97  and  _100
REMARK   37  A    between atoms: _100  and  _101
REMARK   38  A    between atoms: _107  and  _109
REMARK   39  A    between atoms: _120  and  _123
REMARK   40  A    between atoms: _123  and  _124
REMARK   41  A    between atoms: _132  and  _133
REMARK   42  A    between atoms: _141  and  _143
REMARK   43  A    between atoms: _143  and  _144
REMARK   44  A    between atoms: _143  and  _146
REMARK   45  A    between atoms: _146  and  _147
REMARK   46  A    between atoms: _147  and  _148
REMARK   47  A    between atoms: _151  and  _153
REMARK   48  A    between atoms: _153  and  _154
REMARK   49  A    between atoms: _153  and  _156
REMARK   50  A    between atoms: _156  and  _157
REMARK   51  A    between atoms: _162  and  _164
REMARK   52  A    between atoms: _164  and  _165
REMARK   53  A    between atoms: _164  and  _167
REMARK   54  A    between atoms: _167  and  _168
REMARK   55  A    between atoms: _168  and  _169
REMARK   56  A    between atoms: _172  and  _174
REMARK   57  A    between atoms: _174  and  _175
REMARK   58  A    between atoms: _174  and  _177
REMARK   59  A    between atoms: _177  and  _178
REMARK   60  A    between atoms: _181  and  _183
REMARK   61  A    between atoms: _183  and  _184
REMARK   62  A    between atoms: _183  and  _186
REMARK   63  A    between atoms: _186  and  _187
REMARK   64  A    between atoms: _188  and  ZN_441
REMARK   65  A    between atoms: _192  and  _194
REMARK   66  A    between atoms: _194  and  _195
REMARK   67  A    between atoms: _194  and  _197
REMARK   68  A    between atoms: _197  and  _198
REMARK   69  A    between atoms: _201  and  _203
REMARK   70  A    between atoms: _203  and  _204
REMARK   71  A    between atoms: _203  and  _206
REMARK   72  A    between atoms: _209  and  _211
REMARK   73  A    between atoms: _211  and  _212
REMARK   74  A    between atoms: _211  and  _214
REMARK   75  A    between atoms: _214  and  _215
REMARK   76  A    between atoms: _220  and  _222
REMARK   77  A    between atoms: _222  and  _223
REMARK   78  A    between atoms: _222  and  _225
REMARK   79  A    between atoms: _225  and  _226
REMARK   80  A    between atoms: _229  and  _231
REMARK   81  A    between atoms: _231  and  _232
REMARK   82  A    between atoms: _231  and  _234
REMARK   83  A    between atoms: _234  and  _235
REMARK   84  A    between atoms: _241  and  _243
REMARK   85  A    between atoms: _243  and  _244
REMARK   86  A    between atoms: _246  and  _248
REMARK   87  A    between atoms: _248  and  _249
REMARK   88  A    between atoms: _248  and  _251
REMARK   89  A    between atoms: _251  and  _252
REMARK   90  A    between atoms: _252  and  _253
REMARK   91  A    between atoms: _253  and  _254
REMARK   92  A    between atoms: _254  and  _255
REMARK   93  A    between atoms: _259  and  _261
REMARK   94  A    between atoms: _261  and  _262
REMARK   95  A    between atoms: _265  and  _267
REMARK   96  A    between atoms: _267  and  _268
REMARK   97  A    between atoms: _267  and  _270
REMARK   98  A    between atoms: _273  and  _275
REMARK   99  A    between atoms: _275  and  _276
REMARK  100  A    between atoms: _275  and  _278
REMARK  101  A    between atoms: _278  and  _279
REMARK  102  A    between atoms: _279  and  _280
REMARK  103  A    between atoms: _285  and  _287
REMARK  104  A    between atoms: _287  and  _288
REMARK  105  A    between atoms: _287  and  _290
REMARK  106  A    between atoms: _290  and  _291
REMARK  107  A    between atoms: _294  and  _296
REMARK  108  A    between atoms: _296  and  _297
REMARK  109  A    between atoms: _300  and  _302
REMARK  110  A    between atoms: _302  and  _303
REMARK  111  A    between atoms: _302  and  _305
REMARK  112  A    between atoms: _308  and  _310
REMARK  113  A    between atoms: _310  and  _311
REMARK  114  A    between atoms: _310  and  _313
REMARK  115  A    between atoms: _313  and  _314
REMARK  116  A    between atoms: _317  and  _319
REMARK  117  A    between atoms: _319  and  _320
REMARK  118  A    between atoms: _322  and  _324
REMARK  119  A    between atoms: _324  and  _325
REMARK  120  A    between atoms: _324  and  _327
REMARK  121  A    between atoms: _327  and  _328
REMARK  122  A    between atoms: _330  and  _332
REMARK  123  A    between atoms: _332  and  _333
REMARK  124  A    between atoms: _332  and  _335
REMARK  125  A    between atoms: _335  and  _336
REMARK  126  A    between atoms: _339  and  _341
REMARK  127  A    between atoms: _341  and  _342
REMARK  128  A    between atoms: _341  and  _344
REMARK  129  A    between atoms: _344  and  _345
REMARK  130  A    between atoms: _348  and  _350
REMARK  131  A    between atoms: _350  and  _351
REMARK  132  A    between atoms: _350  and  _353
REMARK  133  A    between atoms: _353  and  _354
REMARK  134  A    between atoms: _358  and  _359
REMARK  135  A    between atoms: _365  and  _366
REMARK  136  A    between atoms: _371  and  _373
REMARK  137  A    between atoms: _373  and  _374
REMARK  138  A    between atoms: _373  and  _376
REMARK  139  A    between atoms: _376  and  _377
REMARK  140  A    between atoms: _380  and  _382
REMARK  141  A    between atoms: _382  and  _383
REMARK  142  A    between atoms: _382  and  _385
REMARK  143  A    between atoms: _385  and  _386
REMARK  144  A    between atoms: _389  and  _391
REMARK  145  A    between atoms: _391  and  _392
REMARK  146  A    between atoms: _391  and  _394
REMARK  147  A    between atoms: _397  and  _399
REMARK  148  A    between atoms: _399  and  _400
REMARK  149  A    between atoms: _399  and  _402
REMARK  150  A    between atoms: _402  and  _403
REMARK  151  A    between atoms: _413  and  _415
REMARK  152  A    between atoms: _415  and  _416
REMARK  153  A    between atoms: _415  and  _418
REMARK  154  A    between atoms: _418  and  _419
REMARK  155  A    between atoms: _424  and  _426
REMARK  156  A    between atoms: _426  and  _427
REMARK  157  A    between atoms: _426  and  _429
REMARK  158  A    between atoms: _429  and  _430
REMARK  159  A    between atoms: _430  and  _431
REMARK  160  A    between atoms: _431  and  _432
REMARK                            x       y       z     vdW  Elec       q    Type
REMARK                         _______ _______ _______ _____ _____    ______ ____
ROOT
ATOM      1  CG  TRP A   1       5.711  -0.034  11.988  0.00  0.00    -0.002 A 
ATOM      2  CD2 TRP A   1       4.381  -0.567  11.956  0.00  0.00    +0.013 A 
ATOM      3  CE3 TRP A   1       3.833  -1.825  12.226  0.00  0.00    +0.001 A 
ATOM      4  CZ3 TRP A   1       2.453  -1.996  12.085  0.00  0.00    +0.000 A 
ATOM      5  CH2 TRP A   1       1.628  -0.934  11.683  0.00  0.00    +0.001 A 
ATOM      6  CZ2 TRP A   1       2.143   0.307  11.414  0.00  0.00    +0.017 A 
ATOM      7  CE2 TRP A   1       3.522   0.479  11.552  0.00  0.00    +0.056 A 
ATOM      8  NE1 TRP A   1       4.296   1.591  11.350  0.00  0.00    -0.352 N 
ATOM      9  HE1 TRP A   1       3.948   2.523  11.048  0.00  0.00    +0.166 HD
ATOM     10  CD1 TRP A   1       5.606   1.274  11.612  0.00  0.00    +0.068 A 
ENDROOT
BRANCH   1  11
ATOM     11  CB  TRP A   1       6.972  -0.774  12.340  0.00  0.00    +0.053 C 
BRANCH  11  12
ATOM     12  CA  TRP A   1       7.656  -1.468  11.149  0.00  0.00    +0.137 C 
BRANCH  12  13
ATOM     13  N   TRP A   1       8.253  -0.502  10.222  0.00  0.00    -0.239 NA
ATOM     14  H   TRP A   1       8.078   0.516  10.346  0.00  0.00    +0.142 HD
ENDBRANCH  12  13
BRANCH  12  15
ATOM     15  C   TRP A   1       6.637  -2.359  10.440  0.00  0.00    +0.224 C 
ATOM     16  O   TRP A   1       6.021  -1.958   9.455  0.00  0.00    -0.287 OA
ENDBRANCH  12  15
ENDBRANCH  11  12
ENDBRANCH   1  11
TORSDOF 4
REMARK  Name = ../refined-set-2016/3ibn/3ibn_pocket.pdb
REMARK  160 active torsions:
REMARK  status: ('A' for Active; 'I' for Inactive)
REMARK    1  A    between atoms: _1  and  _3
REMARK    2  A    between atoms: _3  and  _4
REMARK    3  A    between atoms: _3  and  _6
REMARK    4  A    between atoms: _6  and  _7
REMARK    5  A    between atoms: _17  and  _19
REMARK    6  A    between atoms: _19  and  _20
REMARK    7  A    between atoms: _19  and  _22
REMARK    8  A    between atoms: _22  and  _23
REMARK    9  A    between atoms: _28  and  _29
REMARK   10  A    between atoms: _31  and  _33
REMARK   11  A    between atoms: _33  and  _34
REMARK   12  A    between atoms: _33  and  _36
REMARK   13  A    between atoms: _36  and  _37
REMARK   14  A    between atoms: _40  and  _41
REMARK   15  A    between atoms: _46  and  _48
REMARK   16  A    between atoms: _48  and  _49
REMARK   17  A    between atoms: _48  and  _51
REMARK   18  A    between atoms: _51  and  _52
REMARK   19  A    between atoms: _57  and  _59
REMARK   20  A    between atoms: _59  and  _60
REMARK   21  A    between atoms: _63  and  _65
REMARK   22  A    between atoms: _65  and  _66
REMARK   23  A    between atoms: _65  and  _68
REMARK   24  A    between atoms: _68  and  _69
REMARK   25  A    between atoms: _74  and  _76
REMARK   26  A    between atoms: _76  and  _77
REMARK   27  A    between atoms: _76  and  _79
REMARK   28  A    between atoms: _79  and  _80
REMARK   29  A    between atoms: _83  and  _85
REMARK   30  A    between atoms: _85  and  _86
REMARK   31  A    between atoms: _85  and  _88
REMARK   32  A    between atoms: _88  and  _89
REMARK   33  A    between atoms: _89  and  _90
REMARK   34  A    between atoms: _95  and  _97
REMARK   35  A    between atoms: _97  and  _98
REMARK   36  A    between atoms: _97  and  _100
REMARK   37  A    between atoms: _100  and  _101
REMARK   38  A    between atoms: _107  and  _109
REMARK   39  A    between atoms: _120  and  _123
REMARK   40  A    between atoms: _123  and  _124
REMARK   41  A    between atoms: _132  and  _133
REMARK   42  A    between atoms: _141  and  _143
REMARK   43  A    between atoms: _143  and  _144
REMARK   44  A    between atoms: _143  and  _146
REMARK   45  A    between atoms: _146  and  _147
REMARK   46  A    between atoms: _147  and  _148
REMARK   47  A    between atoms: _151  and  _153
REMARK   48  A    between atoms: _153  and  _154
REMARK   49  A    between atoms: _153  and  _156
REMARK   50  A    between atoms: _156  and  _157
REMARK   51  A    between atoms: _162  and  _164
REMARK   52  A    between atoms: _164  and  _165
REMARK   53  A    between atoms: _164  and  _167
REMARK   54  A    between atoms: _167  and  _168
REMARK   55  A    between atoms: _168  and  _169
REMARK   56  A    between atoms: _172  and  _174
REMARK   57  A    between atoms: _174  and  _175
REMARK   58  A    between atoms: _174  and  _177
REMARK   59  A    between atoms: _177  and  _178
REMARK   60  A    between atoms: _181  and  _183
REMARK   61  A    between atoms: _183  and  _184
REMARK   62  A    between atoms: _183  and  _186
REMARK   63  A    between atoms: _186  and  _187
REMARK   64  A    between atoms: _188  and  ZN_441
REMARK   65  A    between atoms: _192  and  _194
REMARK   66  A    between atoms: _194  and  _195
REMARK   67  A    between atoms: _194  and  _197
REMARK   68  A    between atoms: _197  and  _198
REMARK   69  A    between atoms: _201  and  _203
REMARK   70  A    between atoms: _203  and  _204
REMARK   71  A    between atoms: _203  and  _206
REMARK   72  A    between atoms: _209  and  _211
REMARK   73  A    between atoms: _211  and  _212
REMARK   74  A    between atoms: _211  and  _214
REMARK   75  A    between atoms: _214  and  _215
REMARK   76  A    between atoms: _220  and  _222
REMARK   77  A    between atoms: _222  and  _223
REMARK   78  A    between atoms: _222  and  _225
REMARK   79  A    between atoms: _225  and  _226
REMARK   80  A    between atoms: _229  and  _231
REMARK   81  A    between atoms: _231  and  _232
REMARK   82  A    between atoms: _231  and  _234
REMARK   83  A    between atoms: _234  and  _235
REMARK   84  A    between atoms: _241  and  _243
REMARK   85  A    between atoms: _243  and  _244
REMARK   86  A    between atoms: _246  and  _248
REMARK   87  A    between atoms: _248  and  _249
REMARK   88  A    between atoms: _248  and  _251
REMARK   89  A    between atoms: _251  and  _252
REMARK   90  A    between atoms: _252  and  _253
REMARK   91  A    between atoms: _253  and  _254
REMARK   92  A    between atoms: _254  and  _255
REMARK   93  A    between atoms: _259  and  _261
REMARK   94  A    between atoms: _261  and  _262
REMARK   95  A    between atoms: _265  and  _267
REMARK   96  A    between atoms: _267  and  _268
REMARK   97  A    between atoms: _267  and  _270
REMARK   98  A    between atoms: _273  and  _275
REMARK   99  A    between atoms: _275  and  _276
REMARK  100  A    between atoms: _275  and  _278
REMARK  101  A    between atoms: _278  and  _279
REMARK  102  A    between atoms: _279  and  _280
REMARK  103  A    between atoms: _285  and  _287
REMARK  104  A    between atoms: _287  and  _288
REMARK  105  A    between atoms: _287  and  _290
REMARK  106  A    between atoms: _290  and  _291
REMARK  107  A    between atoms: _294  and  _296
REMARK  108  A    between atoms: _296  and  _297
REMARK  109  A    between atoms: _300  and  _302
REMARK  110  A    between atoms: _302  and  _303
REMARK  111  A    between atoms: _302  and  _305
REMARK  112  A    between atoms: _308  and  _310
REMARK  113  A    between atoms: _310  and  _311
REMARK  114  A    between atoms: _310  and  _313
REMARK  115  A    between atoms: _313  and  _314
REMARK  116  A    between atoms: _317  and  _319
REMARK  117  A    between atoms: _319  and  _320
REMARK  118  A    between atoms: _322  and  _324
REMARK  119  A    between atoms: _324  and  _325
REMARK  120  A    between atoms: _324  and  _327
REMARK  121  A    between atoms: _327  and  _328
REMARK  122  A    between atoms: _330  and  _332
REMARK  123  A    between atoms: _332  and  _333
REMARK  124  A    between atoms: _332  and  _335
REMARK  125  A    between atoms: _335  and  _336
REMARK  126  A    between atoms: _339  and  _341
REMARK  127  A    between atoms: _341  and  _342
REMARK  128  A    between atoms: _341  and  _344
REMARK  129  A    between atoms: _344  and  _345
REMARK  130  A    between atoms: _348  and  _350
REMARK  131  A    between atoms: _350  and  _351
REMARK  132  A    between atoms: _350  and  _353
REMARK  133  A    between atoms: _353  and  _354
REMARK  134  A    between atoms: _358  and  _359
REMARK  135  A    between atoms: _365  and  _366
REMARK  136  A    between atoms: _371  and  _373
REMARK  137  A    between atoms: _373  and  _374
REMARK  138  A    between atoms: _373  and  _376
REMARK  139  A    between atoms: _376  and  _377
REMARK  140  A    between atoms: _380  and  _382
REMARK  141  A    between atoms: _382  and  _383
REMARK  142  A    between atoms: _382  and  _385
REMARK  143  A    between atoms: _385  and  _386
REMARK  144  A    between atoms: _389  and  _391
REMARK  145  A    between atoms: _391  and  _392
REMARK  146  A    between atoms: _391  and  _394
REMARK  147  A    between atoms: _397  and  _399
REMARK  148  A    between atoms: _399  and  _400
REMARK  149  A    between atoms: _399  and  _402
REMARK  150  A    between atoms: _402  and  _403
REMARK  151  A    between atoms: _413  and  _415
REMARK  152  A    between atoms: _415  and  _416
REMARK  153  A    between atoms: _415  and  _418
REMARK  154  A    between atoms: _418  and  _419
REMARK  155  A    between atoms: _424  and  _426
REMARK  156  A    between atoms: _426  and  _427
REMARK  157  A    between atoms: _426  and  _429
REMARK  158  A    between atoms: _429  and  _430
REMARK  159  A    between atoms: _430  and  _431
REMARK  160  A    between atoms: _431  and  _432
REMARK                            x       y       z     vdW  Elec       q    Type
REMARK                         _______ _______ _______ _____ _____    ______ ____
ROOT
ATOM      1  CG  TYR A   1       2.012  -7.142  11.876  0.00  0.00    -0.020 A 
ATOM      2  CD2 TYR A   1       1.433  -7.148  13.142  0.00  0.00    -0.001 A 
ATOM      3  CE2 TYR A   1       0.610  -6.115  13.561  0.00  0.00    +0.036 A 
ATOM      4  CZ  TYR A   1       0.348  -5.058  12.708  0.00  0.00    +0.134 A 
ATOM      5  CE1 TYR A   1       0.907  -5.025  11.438  0.00  0.00    +0.036 A 
ATOM      6  CD1 TYR A   1       1.737  -6.067  11.030  0.00  0.00    -0.001 A 
ENDROOT
BRANCH   4   7
ATOM      7  OH  TYR A   1      -0.474  -4.042  13.132  0.00  0.00    -0.506 OA
ATOM      8  HH  TYR A   1      -0.085  -3.619  13.938  0.00  0.00    +0.292 HD
ENDBRANCH   4   7
BRANCH   1   9
ATOM      9  CB  TYR A   1       2.955  -8.249  11.456  0.00  0.00    +0.051 C 
BRANCH   9  10
ATOM     10  CA  TYR A   1       4.433  -7.898  11.664  0.00  0.00    +0.137 C 
BRANCH  10  11
ATOM     11  N   TYR A   1       4.810  -6.772  10.814  0.00  0.00    -0.239 NA
ATOM     12  H   TYR A   1       4.843  -6.901   9.783  0.00  0.00    +0.142 HD
ENDBRANCH  10  11
BRANCH  10  13
ATOM     13  C   TYR A   1       5.307  -9.125  11.399  0.00  0.00    +0.224 C 
ATOM     14  O   TYR A   1       4.981 -10.236  11.821  0.00  0.00    -0.287 OA
ENDBRANCH  10  13
ENDBRANCH   9  10
ENDBRANCH   1   9
TORSDOF 5
REMARK  Name = ../refined-set-2016/3ibn/3ibn_pocket.pdb
REMARK  160 active torsions:
REMARK  status: ('A' for Active; 'I' for Inactive)
REMARK    1  A    between atoms: _1  and  _3
REMARK    2  A    between atoms: _3  and  _4
REMARK    3  A    between atoms: _3  and  _6
REMARK    4  A    between atoms: _6  and  _7
REMARK    5  A    between atoms: _17  and  _19
REMARK    6  A    between atoms: _19  and  _20
REMARK    7  A    between atoms: _19  and  _22
REMARK    8  A    between atoms: _22  and  _23
REMARK    9  A    between atoms: _28  and  _29
REMARK   10  A    between atoms: _31  and  _33
REMARK   11  A    between atoms: _33  and  _34
REMARK   12  A    between atoms: _33  and  _36
REMARK   13  A    between atoms: _36  and  _37
REMARK   14  A    between atoms: _40  and  _41
REMARK   15  A    between atoms: _46  and  _48
REMARK   16  A    between atoms: _48  and  _49
REMARK   17  A    between atoms: _48  and  _51
REMARK   18  A    between atoms: _51  and  _52
REMARK   19  A    between atoms: _57  and  _59
REMARK   20  A    between atoms: _59  and  _60
REMARK   21  A    between atoms: _63  and  _65
REMARK   22  A    between atoms: _65  and  _66
REMARK   23  A    between atoms: _65  and  _68
REMARK   24  A    between atoms: _68  and  _69
REMARK   25  A    between atoms: _74  and  _76
REMARK   26  A    between atoms: _76  and  _77
REMARK   27  A    between atoms: _76  and  _79
REMARK   28  A    between atoms: _79  and  _80
REMARK   29  A    between atoms: _83  and  _85
REMARK   30  A    between atoms: _85  and  _86
REMARK   31  A    between atoms: _85  and  _88
REMARK   32  A    between atoms: _88  and  _89
REMARK   33  A    between atoms: _89  and  _90
REMARK   34  A    between atoms: _95  and  _97
REMARK   35  A    between atoms: _97  and  _98
REMARK   36  A    between atoms: _97  and  _100
REMARK   37  A    between atoms: _100  and  _101
REMARK   38  A    between atoms: _107  and  _109
REMARK   39  A    between atoms: _120  and  _123
REMARK   40  A    between atoms: _123  and  _124
REMARK   41  A    between atoms: _132  and  _133
REMARK   42  A    between atoms: _141  and  _143
REMARK   43  A    between atoms: _143  and  _144
REMARK   44  A    between atoms: _143  and  _146
REMARK   45  A    between atoms: _146  and  _147
REMARK   46  A    between atoms: _147  and  _148
REMARK   47  A    between atoms: _151  and  _153
REMARK   48  A    between atoms: _153  and  _154
REMARK   49  A    between atoms: _153  and  _156
REMARK   50  A    between atoms: _156  and  _157
REMARK   51  A    between atoms: _162  and  _164
REMARK   52  A    between atoms: _164  and  _165
REMARK   53  A    between atoms: _164  and  _167
REMARK   54  A    between atoms: _167  and  _168
REMARK   55  A    between atoms: _168  and  _169
REMARK   56  A    between atoms: _172  and  _174
REMARK   57  A    between atoms: _174  and  _175
REMARK   58  A    between atoms: _174  and  _177
REMARK   59  A    between atoms: _177  and  _178
REMARK   60  A    between atoms: _181  and  _183
REMARK   61  A    between atoms: _183  and  _184
REMARK   62  A    between atoms: _183  and  _186
REMARK   63  A    between atoms: _186  and  _187
REMARK   64  A    between atoms: _188  and  ZN_441
REMARK   65  A    between atoms: _192  and  _194
REMARK   66  A    between atoms: _194  and  _195
REMARK   67  A    between atoms: _194  and  _197
REMARK   68  A    between atoms: _197  and  _198
REMARK   69  A    between atoms: _201  and  _203
REMARK   70  A    between atoms: _203  and  _204
REMARK   71  A    between atoms: _203  and  _206
REMARK   72  A    between atoms: _209  and  _211
REMARK   73  A    between atoms: _211  and  _212
REMARK   74  A    between atoms: _211  and  _214
REMARK   75  A    between atoms: _214  and  _215
REMARK   76  A    between atoms: _220  and  _222
REMARK   77  A    between atoms: _222  and  _223
REMARK   78  A    between atoms: _222  and  _225
REMARK   79  A    between atoms: _225  and  _226
REMARK   80  A    between atoms: _229  and  _231
REMARK   81  A    between atoms: _231  and  _232
REMARK   82  A    between atoms: _231  and  _234
REMARK   83  A    between atoms: _234  and  _235
REMARK   84  A    between atoms: _241  and  _243
REMARK   85  A    between atoms: _243  and  _244
REMARK   86  A    between atoms: _246  and  _248
REMARK   87  A    between atoms: _248  and  _249
REMARK   88  A    between atoms: _248  and  _251
REMARK   89  A    between atoms: _251  and  _252
REMARK   90  A    between atoms: _252  and  _253
REMARK   91  A    between atoms: _253  and  _254
REMARK   92  A    between atoms: _254  and  _255
REMARK   93  A    between atoms: _259  and  _261
REMARK   94  A    between atoms: _261  and  _262
REMARK   95  A    between atoms: _265  and  _267
REMARK   96  A    between atoms: _267  and  _268
REMARK   97  A    between atoms: _267  and  _270
REMARK   98  A    between atoms: _273  and  _275
REMARK   99  A    between atoms: _275  and  _276
REMARK  100  A    between atoms: _275  and  _278
REMARK  101  A    between atoms: _278  and  _279
REMARK  102  A    between atoms: _279  and  _280
REMARK  103  A    between atoms: _285  and  _287
REMARK  104  A    between atoms: _287  and  _288
REMARK  105  A    between atoms: _287  and  _290
REMARK  106  A    between atoms: _290  and  _291
REMARK  107  A    between atoms: _294  and  _296
REMARK  108  A    between atoms: _296  and  _297
REMARK  109  A    between atoms: _300  and  _302
REMARK  110  A    between atoms: _302  and  _303
REMARK  111  A    between atoms: _302  and  _305
REMARK  112  A    between atoms: _308  and  _310
REMARK  113  A    between atoms: _310  and  _311
REMARK  114  A    between atoms: _310  and  _313
REMARK  115  A    between atoms: _313  and  _314
REMARK  116  A    between atoms: _317  and  _319
REMARK  117  A    between atoms: _319  and  _320
REMARK  118  A    between atoms: _322  and  _324
REMARK  119  A    between atoms: _324  and  _325
REMARK  120  A    between atoms: _324  and  _327
REMARK  121  A    between atoms: _327  and  _328
REMARK  122  A    between atoms: _330  and  _332
REMARK  123  A    between atoms: _332  and  _333
REMARK  124  A    between atoms: _332  and  _335
REMARK  125  A    between atoms: _335  and  _336
REMARK  126  A    between atoms: _339  and  _341
REMARK  127  A    between atoms: _341  and  _342
REMARK  128  A    between atoms: _341  and  _344
REMARK  129  A    between atoms: _344  and  _345
REMARK  130  A    between atoms: _348  and  _350
REMARK  131  A    between atoms: _350  and  _351
REMARK  132  A    between atoms: _350  and  _353
REMARK  133  A    between atoms: _353  and  _354
REMARK  134  A    between atoms: _358  and  _359
REMARK  135  A    between atoms: _365  and  _366
REMARK  136  A    between atoms: _371  and  _373
REMARK  137  A    between atoms: _373  and  _374
REMARK  138  A    between atoms: _373  and  _376
REMARK  139  A    between atoms: _376  and  _377
REMARK  140  A    between atoms: _380  and  _382
REMARK  141  A    between atoms: _382  and  _383
REMARK  142  A    between atoms: _382  and  _385
REMARK  143  A    between atoms: _385  and  _386
REMARK  144  A    between atoms: _389  and  _391
REMARK  145  A    between atoms: _391  and  _392
REMARK  146  A    between atoms: _391  and  _394
REMARK  147  A    between atoms: _397  and  _399
REMARK  148  A    between atoms: _399  and  _400
REMARK  149  A    between atoms: _399  and  _402
REMARK  150  A    between atoms: _402  and  _403
REMARK  151  A    between atoms: _413  and  _415
REMARK  152  A    between atoms: _415  and  _416
REMARK  153  A    between atoms: _415  and  _418
REMARK  154  A    between atoms: _418  and  _419
REMARK  155  A    between atoms: _424  and  _426
REMARK  156  A    between atoms: _426  and  _427
REMARK  157  A    between atoms: _426  and  _429
REMARK  158  A    between atoms: _429  and  _430
REMARK  159  A    between atoms: _430  and  _431
REMARK  160  A    between atoms: _431  and  _432
REMARK                            x       y       z     vdW  Elec       q    Type
REMARK                         _______ _______ _______ _____ _____    ______ ____
ROOT
ATOM      1  C   SER A   1      -2.242  -3.075  23.083  0.00  0.00    +0.244 C 
ATOM      2  N   PRO A   2      -2.849  -4.254  22.875  0.00  0.00    -0.273 N 
ATOM      3  CA  PRO A   2      -4.025  -4.733  23.609  0.00  0.00    +0.140 C 
ATOM      4  CB  PRO A   2      -4.626  -5.756  22.652  0.00  0.00    +0.030 C 
ATOM      5  CG  PRO A   2      -3.387  -6.413  22.106  0.00  0.00    +0.024 C 
ATOM      6  CD  PRO A   2      -2.490  -5.203  21.802  0.00  0.00    +0.094 C 
ATOM      7  O   SER A   1      -1.248  -2.733  22.447  0.00  0.00    -0.273 OA
ENDROOT
BRANCH   3   8
ATOM      8  C   PRO A   2      -3.605  -5.381  24.928  0.00  0.00    +0.227 C 
ATOM      9  O   PRO A   2      -2.421  -5.402  25.272  0.00  0.00    -0.286 OA
ENDBRANCH   3   8
BRANCH   1  10
ATOM     10  CA  SER A   1      -2.822  -2.168  24.162  0.00  0.00    +0.175 C 
BRANCH  10  11
ATOM     11  N   SER A   1      -1.774  -1.276  24.627  0.00  0.00    -0.236 NA
ATOM     12  H   SER A   1      -1.267  -0.703  23.922  0.00  0.00    +0.142 HD
ENDBRANCH  10  11
BRANCH  10  13
ATOM     13  CB  SER A   1      -3.980  -1.357  23.576  0.00  0.00    +0.163 C 
BRANCH  13  14
ATOM     14  OG  SER A   1      -4.536  -0.467  24.529  0.00  0.00    -0.380 OA
ATOM     15  H   SER A   1      -4.878  -0.984  25.301  0.00  0.00    +0.211 HD
ENDBRANCH  13  14
ENDBRANCH  10  13
ENDBRANCH   1  10
TORSDOF 5
REMARK  Name = ../refined-set-2016/3ibn/3ibn_pocket.pdb
REMARK  160 active torsions:
REMARK  status: ('A' for Active; 'I' for Inactive)
REMARK    1  A    between atoms: _1  and  _3
REMARK    2  A    between atoms: _3  and  _4
REMARK    3  A    between atoms: _3  and  _6
REMARK    4  A    between atoms: _6  and  _7
REMARK    5  A    between atoms: _17  and  _19
REMARK    6  A    between atoms: _19  and  _20
REMARK    7  A    between atoms: _19  and  _22
REMARK    8  A    between atoms: _22  and  _23
REMARK    9  A    between atoms: _28  and  _29
REMARK   10  A    between atoms: _31  and  _33
REMARK   11  A    between atoms: _33  and  _34
REMARK   12  A    between atoms: _33  and  _36
REMARK   13  A    between atoms: _36  and  _37
REMARK   14  A    between atoms: _40  and  _41
REMARK   15  A    between atoms: _46  and  _48
REMARK   16  A    between atoms: _48  and  _49
REMARK   17  A    between atoms: _48  and  _51
REMARK   18  A    between atoms: _51  and  _52
REMARK   19  A    between atoms: _57  and  _59
REMARK   20  A    between atoms: _59  and  _60
REMARK   21  A    between atoms: _63  and  _65
REMARK   22  A    between atoms: _65  and  _66
REMARK   23  A    between atoms: _65  and  _68
REMARK   24  A    between atoms: _68  and  _69
REMARK   25  A    between atoms: _74  and  _76
REMARK   26  A    between atoms: _76  and  _77
REMARK   27  A    between atoms: _76  and  _79
REMARK   28  A    between atoms: _79  and  _80
REMARK   29  A    between atoms: _83  and  _85
REMARK   30  A    between atoms: _85  and  _86
REMARK   31  A    between atoms: _85  and  _88
REMARK   32  A    between atoms: _88  and  _89
REMARK   33  A    between atoms: _89  and  _90
REMARK   34  A    between atoms: _95  and  _97
REMARK   35  A    between atoms: _97  and  _98
REMARK   36  A    between atoms: _97  and  _100
REMARK   37  A    between atoms: _100  and  _101
REMARK   38  A    between atoms: _107  and  _109
REMARK   39  A    between atoms: _120  and  _123
REMARK   40  A    between atoms: _123  and  _124
REMARK   41  A    between atoms: _132  and  _133
REMARK   42  A    between atoms: _141  and  _143
REMARK   43  A    between atoms: _143  and  _144
REMARK   44  A    between atoms: _143  and  _146
REMARK   45  A    between atoms: _146  and  _147
REMARK   46  A    between atoms: _147  and  _148
REMARK   47  A    between atoms: _151  and  _153
REMARK   48  A    between atoms: _153  and  _154
REMARK   49  A    between atoms: _153  and  _156
REMARK   50  A    between atoms: _156  and  _157
REMARK   51  A    between atoms: _162  and  _164
REMARK   52  A    between atoms: _164  and  _165
REMARK   53  A    between atoms: _164  and  _167
REMARK   54  A    between atoms: _167  and  _168
REMARK   55  A    between atoms: _168  and  _169
REMARK   56  A    between atoms: _172  and  _174
REMARK   57  A    between atoms: _174  and  _175
REMARK   58  A    between atoms: _174  and  _177
REMARK   59  A    between atoms: _177  and  _178
REMARK   60  A    between atoms: _181  and  _183
REMARK   61  A    between atoms: _183  and  _184
REMARK   62  A    between atoms: _183  and  _186
REMARK   63  A    between atoms: _186  and  _187
REMARK   64  A    between atoms: _188  and  ZN_441
REMARK   65  A    between atoms: _192  and  _194
REMARK   66  A    between atoms: _194  and  _195
REMARK   67  A    between atoms: _194  and  _197
REMARK   68  A    between atoms: _197  and  _198
REMARK   69  A    between atoms: _201  and  _203
REMARK   70  A    between atoms: _203  and  _204
REMARK   71  A    between atoms: _203  and  _206
REMARK   72  A    between atoms: _209  and  _211
REMARK   73  A    between atoms: _211  and  _212
REMARK   74  A    between atoms: _211  and  _214
REMARK   75  A    between atoms: _214  and  _215
REMARK   76  A    between atoms: _220  and  _222
REMARK   77  A    between atoms: _222  and  _223
REMARK   78  A    between atoms: _222  and  _225
REMARK   79  A    between atoms: _225  and  _226
REMARK   80  A    between atoms: _229  and  _231
REMARK   81  A    between atoms: _231  and  _232
REMARK   82  A    between atoms: _231  and  _234
REMARK   83  A    between atoms: _234  and  _235
REMARK   84  A    between atoms: _241  and  _243
REMARK   85  A    between atoms: _243  and  _244
REMARK   86  A    between atoms: _246  and  _248
REMARK   87  A    between atoms: _248  and  _249
REMARK   88  A    between atoms: _248  and  _251
REMARK   89  A    between atoms: _251  and  _252
REMARK   90  A    between atoms: _252  and  _253
REMARK   91  A    between atoms: _253  and  _254
REMARK   92  A    between atoms: _254  and  _255
REMARK   93  A    between atoms: _259  and  _261
REMARK   94  A    between atoms: _261  and  _262
REMARK   95  A    between atoms: _265  and  _267
REMARK   96  A    between atoms: _267  and  _268
REMARK   97  A    between atoms: _267  and  _270
REMARK   98  A    between atoms: _273  and  _275
REMARK   99  A    between atoms: _275  and  _276
REMARK  100  A    between atoms: _275  and  _278
REMARK  101  A    between atoms: _278  and  _279
REMARK  102  A    between atoms: _279  and  _280
REMARK  103  A    between atoms: _285  and  _287
REMARK  104  A    between atoms: _287  and  _288
REMARK  105  A    between atoms: _287  and  _290
REMARK  106  A    between atoms: _290  and  _291
REMARK  107  A    between atoms: _294  and  _296
REMARK  108  A    between atoms: _296  and  _297
REMARK  109  A    between atoms: _300  and  _302
REMARK  110  A    between atoms: _302  and  _303
REMARK  111  A    between atoms: _302  and  _305
REMARK  112  A    between atoms: _308  and  _310
REMARK  113  A    between atoms: _310  and  _311
REMARK  114  A    between atoms: _310  and  _313
REMARK  115  A    between atoms: _313  and  _314
REMARK  116  A    between atoms: _317  and  _319
REMARK  117  A    between atoms: _319  and  _320
REMARK  118  A    between atoms: _322  and  _324
REMARK  119  A    between atoms: _324  and  _325
REMARK  120  A    between atoms: _324  and  _327
REMARK  121  A    between atoms: _327  and  _328
REMARK  122  A    between atoms: _330  and  _332
REMARK  123  A    between atoms: _332  and  _333
REMARK  124  A    between atoms: _332  and  _335
REMARK  125  A    between atoms: _335  and  _336
REMARK  126  A    between atoms: _339  and  _341
REMARK  127  A    between atoms: _341  and  _342
REMARK  128  A    between atoms: _341  and  _344
REMARK  129  A    between atoms: _344  and  _345
REMARK  130  A    between atoms: _348  and  _350
REMARK  131  A    between atoms: _350  and  _351
REMARK  132  A    between atoms: _350  and  _353
REMARK  133  A    between atoms: _353  and  _354
REMARK  134  A    between atoms: _358  and  _359
REMARK  135  A    between atoms: _365  and  _366
REMARK  136  A    between atoms: _371  and  _373
REMARK  137  A    between atoms: _373  and  _374
REMARK  138  A    between atoms: _373  and  _376
REMARK  139  A    between atoms: _376  and  _377
REMARK  140  A    between atoms: _380  and  _382
REMARK  141  A    between atoms: _382  and  _383
REMARK  142  A    between atoms: _382  and  _385
REMARK  143  A    between atoms: _385  and  _386
REMARK  144  A    between atoms: _389  and  _391
REMARK  145  A    between atoms: _391  and  _392
REMARK  146  A    between atoms: _391  and  _394
REMARK  147  A    between atoms: _397  and  _399
REMARK  148  A    between atoms: _399  and  _400
REMARK  149  A    between atoms: _399  and  _402
REMARK  150  A    between atoms: _402  and  _403
REMARK  151  A    between atoms: _413  and  _415
REMARK  152  A    between atoms: _415  and  _416
REMARK  153  A    between atoms: _415  and  _418
REMARK  154  A    between atoms: _418  and  _419
REMARK  155  A    between atoms: _424  and  _426
REMARK  156  A    between atoms: _426  and  _427
REMARK  157  A    between atoms: _426  and  _429
REMARK  158  A    between atoms: _429  and  _430
REMARK  159  A    between atoms: _430  and  _431
REMARK  160  A    between atoms: _431  and  _432
REMARK                            x       y       z     vdW  Elec       q    Type
REMARK                         _______ _______ _______ _____ _____    ______ ____
ROOT
ATOM      1  CB  ASN A   1      -2.212   1.702   5.211  0.00  0.00    +0.110 C 
ENDROOT
BRANCH   1   2
ATOM      2  CG  ASN A   1      -2.653   0.817   6.361  0.00  0.00    +0.221 C 
ATOM      3  ND2 ASN A   1      -3.583   1.314   7.161  0.00  0.00    -0.329 N 
ATOM      4 HD21 ASN A   1      -3.919   0.761   7.975  0.00  0.00    +0.145 HD
ATOM      5 HD22 ASN A   1      -3.978   2.258   6.976  0.00  0.00    +0.145 HD
ATOM      6  OD1 ASN A   1      -2.153  -0.293   6.535  0.00  0.00    -0.275 OA
ENDBRANCH   1   2
BRANCH   1   7
ATOM      7  CA  ASN A   1      -1.929   0.910   3.934  0.00  0.00    +0.142 C 
BRANCH   7   8
ATOM      8  N   ASN A   1      -3.121   0.177   3.521  0.00  0.00    -0.239 NA
ATOM      9  H   ASN A   1      -3.760  -0.216   4.241  0.00  0.00    +0.142 HD
ENDBRANCH   7   8
BRANCH   7  10
ATOM     10  C   ASN A   1      -0.690   0.044   4.145  0.00  0.00    +0.225 C 
ATOM     11  O   ASN A   1       0.313   0.525   4.664  0.00  0.00    -0.287 OA
ENDBRANCH   7  10
ENDBRANCH   1   7
TORSDOF 4
REMARK  Name = ../refined-set-2016/3ibn/3ibn_pocket.pdb
REMARK  160 active torsions:
REMARK  status: ('A' for Active; 'I' for Inactive)
REMARK    1  A    between atoms: _1  and  _3
REMARK    2  A    between atoms: _3  and  _4
REMARK    3  A    between atoms: _3  and  _6
REMARK    4  A    between atoms: _6  and  _7
REMARK    5  A    between atoms: _17  and  _19
REMARK    6  A    between atoms: _19  and  _20
REMARK    7  A    between atoms: _19  and  _22
REMARK    8  A    between atoms: _22  and  _23
REMARK    9  A    between atoms: _28  and  _29
REMARK   10  A    between atoms: _31  and  _33
REMARK   11  A    between atoms: _33  and  _34
REMARK   12  A    between atoms: _33  and  _36
REMARK   13  A    between atoms: _36  and  _37
REMARK   14  A    between atoms: _40  and  _41
REMARK   15  A    between atoms: _46  and  _48
REMARK   16  A    between atoms: _48  and  _49
REMARK   17  A    between atoms: _48  and  _51
REMARK   18  A    between atoms: _51  and  _52
REMARK   19  A    between atoms: _57  and  _59
REMARK   20  A    between atoms: _59  and  _60
REMARK   21  A    between atoms: _63  and  _65
REMARK   22  A    between atoms: _65  and  _66
REMARK   23  A    between atoms: _65  and  _68
REMARK   24  A    between atoms: _68  and  _69
REMARK   25  A    between atoms: _74  and  _76
REMARK   26  A    between atoms: _76  and  _77
REMARK   27  A    between atoms: _76  and  _79
REMARK   28  A    between atoms: _79  and  _80
REMARK   29  A    between atoms: _83  and  _85
REMARK   30  A    between atoms: _85  and  _86
REMARK   31  A    between atoms: _85  and  _88
REMARK   32  A    between atoms: _88  and  _89
REMARK   33  A    between atoms: _89  and  _90
REMARK   34  A    between atoms: _95  and  _97
REMARK   35  A    between atoms: _97  and  _98
REMARK   36  A    between atoms: _97  and  _100
REMARK   37  A    between atoms: _100  and  _101
REMARK   38  A    between atoms: _107  and  _109
REMARK   39  A    between atoms: _120  and  _123
REMARK   40  A    between atoms: _123  and  _124
REMARK   41  A    between atoms: _132  and  _133
REMARK   42  A    between atoms: _141  and  _143
REMARK   43  A    between atoms: _143  and  _144
REMARK   44  A    between atoms: _143  and  _146
REMARK   45  A    between atoms: _146  and  _147
REMARK   46  A    between atoms: _147  and  _148
REMARK   47  A    between atoms: _151  and  _153
REMARK   48  A    between atoms: _153  and  _154
REMARK   49  A    between atoms: _153  and  _156
REMARK   50  A    between atoms: _156  and  _157
REMARK   51  A    between atoms: _162  and  _164
REMARK   52  A    between atoms: _164  and  _165
REMARK   53  A    between atoms: _164  and  _167
REMARK   54  A    between atoms: _167  and  _168
REMARK   55  A    between atoms: _168  and  _169
REMARK   56  A    between atoms: _172  and  _174
REMARK   57  A    between atoms: _174  and  _175
REMARK   58  A    between atoms: _174  and  _177
REMARK   59  A    between atoms: _177  and  _178
REMARK   60  A    between atoms: _181  and  _183
REMARK   61  A    between atoms: _183  and  _184
REMARK   62  A    between atoms: _183  and  _186
REMARK   63  A    between atoms: _186  and  _187
REMARK   64  A    between atoms: _188  and  ZN_441
REMARK   65  A    between atoms: _192  and  _194
REMARK   66  A    between atoms: _194  and  _195
REMARK   67  A    between atoms: _194  and  _197
REMARK   68  A    between atoms: _197  and  _198
REMARK   69  A    between atoms: _201  and  _203
REMARK   70  A    between atoms: _203  and  _204
REMARK   71  A    between atoms: _203  and  _206
REMARK   72  A    between atoms: _209  and  _211
REMARK   73  A    between atoms: _211  and  _212
REMARK   74  A    between atoms: _211  and  _214
REMARK   75  A    between atoms: _214  and  _215
REMARK   76  A    between atoms: _220  and  _222
REMARK   77  A    between atoms: _222  and  _223
REMARK   78  A    between atoms: _222  and  _225
REMARK   79  A    between atoms: _225  and  _226
REMARK   80  A    between atoms: _229  and  _231
REMARK   81  A    between atoms: _231  and  _232
REMARK   82  A    between atoms: _231  and  _234
REMARK   83  A    between atoms: _234  and  _235
REMARK   84  A    between atoms: _241  and  _243
REMARK   85  A    between atoms: _243  and  _244
REMARK   86  A    between atoms: _246  and  _248
REMARK   87  A    between atoms: _248  and  _249
REMARK   88  A    between atoms: _248  and  _251
REMARK   89  A    between atoms: _251  and  _252
REMARK   90  A    between atoms: _252  and  _253
REMARK   91  A    between atoms: _253  and  _254
REMARK   92  A    between atoms: _254  and  _255
REMARK   93  A    between atoms: _259  and  _261
REMARK   94  A    between atoms: _261  and  _262
REMARK   95  A    between atoms: _265  and  _267
REMARK   96  A    between atoms: _267  and  _268
REMARK   97  A    between atoms: _267  and  _270
REMARK   98  A    between atoms: _273  and  _275
REMARK   99  A    between atoms: _275  and  _276
REMARK  100  A    between atoms: _275  and  _278
REMARK  101  A    between atoms: _278  and  _279
REMARK  102  A    between atoms: _279  and  _280
REMARK  103  A    between atoms: _285  and  _287
REMARK  104  A    between atoms: _287  and  _288
REMARK  105  A    between atoms: _287  and  _290
REMARK  106  A    between atoms: _290  and  _291
REMARK  107  A    between atoms: _294  and  _296
REMARK  108  A    between atoms: _296  and  _297
REMARK  109  A    between atoms: _300  and  _302
REMARK  110  A    between atoms: _302  and  _303
REMARK  111  A    between atoms: _302  and  _305
REMARK  112  A    between atoms: _308  and  _310
REMARK  113  A    between atoms: _310  and  _311
REMARK  114  A    between atoms: _310  and  _313
REMARK  115  A    between atoms: _313  and  _314
REMARK  116  A    between atoms: _317  and  _319
REMARK  117  A    between atoms: _319  and  _320
REMARK  118  A    between atoms: _322  and  _324
REMARK  119  A    between atoms: _324  and  _325
REMARK  120  A    between atoms: _324  and  _327
REMARK  121  A    between atoms: _327  and  _328
REMARK  122  A    between atoms: _330  and  _332
REMARK  123  A    between atoms: _332  and  _333
REMARK  124  A    between atoms: _332  and  _335
REMARK  125  A    between atoms: _335  and  _336
REMARK  126  A    between atoms: _339  and  _341
REMARK  127  A    between atoms: _341  and  _342
REMARK  128  A    between atoms: _341  and  _344
REMARK  129  A    between atoms: _344  and  _345
REMARK  130  A    between atoms: _348  and  _350
REMARK  131  A    between atoms: _350  and  _351
REMARK  132  A    between atoms: _350  and  _353
REMARK  133  A    between atoms: _353  and  _354
REMARK  134  A    between atoms: _358  and  _359
REMARK  135  A    between atoms: _365  and  _366
REMARK  136  A    between atoms: _371  and  _373
REMARK  137  A    between atoms: _373  and  _374
REMARK  138  A    between atoms: _373  and  _376
REMARK  139  A    between atoms: _376  and  _377
REMARK  140  A    between atoms: _380  and  _382
REMARK  141  A    between atoms: _382  and  _383
REMARK  142  A    between atoms: _382  and  _385
REMARK  143  A    between atoms: _385  and  _386
REMARK  144  A    between atoms: _389  and  _391
REMARK  145  A    between atoms: _391  and  _392
REMARK  146  A    between atoms: _391  and  _394
REMARK  147  A    between atoms: _397  and  _399
REMARK  148  A    between atoms: _399  and  _400
REMARK  149  A    between atoms: _399  and  _402
REMARK  150  A    between atoms: _402  and  _403
REMARK  151  A    between atoms: _413  and  _415
REMARK  152  A    between atoms: _415  and  _416
REMARK  153  A    between atoms: _415  and  _418
REMARK  154  A    between atoms: _418  and  _419
REMARK  155  A    between atoms: _424  and  _426
REMARK  156  A    between atoms: _426  and  _427
REMARK  157  A    between atoms: _426  and  _429
REMARK  158  A    between atoms: _429  and  _430
REMARK  159  A    between atoms: _430  and  _431
REMARK  160  A    between atoms: _431  and  _432
REMARK                            x       y       z     vdW  Elec       q    Type
REMARK                         _______ _______ _______ _____ _____    ______ ____
ROOT
ATOM      1  CA  ALA A   1      -4.389  -3.424   7.147  0.00  0.00    +0.133 C 
ATOM      2  CB  ALA A   1      -4.958  -3.212   8.546  0.00  0.00    +0.027 C 
ENDROOT
BRANCH   1   3
ATOM      3  N   ALA A   1      -3.015  -2.945   7.090  0.00  0.00    -0.239 NA
ATOM      4  H   ALA A   1      -2.816  -2.028   6.642  0.00  0.00    +0.142 HD
ENDBRANCH   1   3
BRANCH   1   5
ATOM      5  C   ALA A   1      -5.133  -2.558   6.139  0.00  0.00    +0.224 C 
ATOM      6  O   ALA A   1      -4.503  -1.880   5.334  0.00  0.00    -0.287 OA
ENDBRANCH   1   5
TORSDOF 2
REMARK  Name = ../refined-set-2016/3ibn/3ibn_pocket.pdb
REMARK  160 active torsions:
REMARK  status: ('A' for Active; 'I' for Inactive)
REMARK    1  A    between atoms: _1  and  _3
REMARK    2  A    between atoms: _3  and  _4
REMARK    3  A    between atoms: _3  and  _6
REMARK    4  A    between atoms: _6  and  _7
REMARK    5  A    between atoms: _17  and  _19
REMARK    6  A    between atoms: _19  and  _20
REMARK    7  A    between atoms: _19  and  _22
REMARK    8  A    between atoms: _22  and  _23
REMARK    9  A    between atoms: _28  and  _29
REMARK   10  A    between atoms: _31  and  _33
REMARK   11  A    between atoms: _33  and  _34
REMARK   12  A    between atoms: _33  and  _36
REMARK   13  A    between atoms: _36  and  _37
REMARK   14  A    between atoms: _40  and  _41
REMARK   15  A    between atoms: _46  and  _48
REMARK   16  A    between atoms: _48  and  _49
REMARK   17  A    between atoms: _48  and  _51
REMARK   18  A    between atoms: _51  and  _52
REMARK   19  A    between atoms: _57  and  _59
REMARK   20  A    between atoms: _59  and  _60
REMARK   21  A    between atoms: _63  and  _65
REMARK   22  A    between atoms: _65  and  _66
REMARK   23  A    between atoms: _65  and  _68
REMARK   24  A    between atoms: _68  and  _69
REMARK   25  A    between atoms: _74  and  _76
REMARK   26  A    between atoms: _76  and  _77
REMARK   27  A    between atoms: _76  and  _79
REMARK   28  A    between atoms: _79  and  _80
REMARK   29  A    between atoms: _83  and  _85
REMARK   30  A    between atoms: _85  and  _86
REMARK   31  A    between atoms: _85  and  _88
REMARK   32  A    between atoms: _88  and  _89
REMARK   33  A    between atoms: _89  and  _90
REMARK   34  A    between atoms: _95  and  _97
REMARK   35  A    between atoms: _97  and  _98
REMARK   36  A    between atoms: _97  and  _100
REMARK   37  A    between atoms: _100  and  _101
REMARK   38  A    between atoms: _107  and  _109
REMARK   39  A    between atoms: _120  and  _123
REMARK   40  A    between atoms: _123  and  _124
REMARK   41  A    between atoms: _132  and  _133
REMARK   42  A    between atoms: _141  and  _143
REMARK   43  A    between atoms: _143  and  _144
REMARK   44  A    between atoms: _143  and  _146
REMARK   45  A    between atoms: _146  and  _147
REMARK   46  A    between atoms: _147  and  _148
REMARK   47  A    between atoms: _151  and  _153
REMARK   48  A    between atoms: _153  and  _154
REMARK   49  A    between atoms: _153  and  _156
REMARK   50  A    between atoms: _156  and  _157
REMARK   51  A    between atoms: _162  and  _164
REMARK   52  A    between atoms: _164  and  _165
REMARK   53  A    between atoms: _164  and  _167
REMARK   54  A    between atoms: _167  and  _168
REMARK   55  A    between atoms: _168  and  _169
REMARK   56  A    between atoms: _172  and  _174
REMARK   57  A    between atoms: _174  and  _175
REMARK   58  A    between atoms: _174  and  _177
REMARK   59  A    between atoms: _177  and  _178
REMARK   60  A    between atoms: _181  and  _183
REMARK   61  A    between atoms: _183  and  _184
REMARK   62  A    between atoms: _183  and  _186
REMARK   63  A    between atoms: _186  and  _187
REMARK   64  A    between atoms: _188  and  ZN_441
REMARK   65  A    between atoms: _192  and  _194
REMARK   66  A    between atoms: _194  and  _195
REMARK   67  A    between atoms: _194  and  _197
REMARK   68  A    between atoms: _197  and  _198
REMARK   69  A    between atoms: _201  and  _203
REMARK   70  A    between atoms: _203  and  _204
REMARK   71  A    between atoms: _203  and  _206
REMARK   72  A    between atoms: _209  and  _211
REMARK   73  A    between atoms: _211  and  _212
REMARK   74  A    between atoms: _211  and  _214
REMARK   75  A    between atoms: _214  and  _215
REMARK   76  A    between atoms: _220  and  _222
REMARK   77  A    between atoms: _222  and  _223
REMARK   78  A    between atoms: _222  and  _225
REMARK   79  A    between atoms: _225  and  _226
REMARK   80  A    between atoms: _229  and  _231
REMARK   81  A    between atoms: _231  and  _232
REMARK   82  A    between atoms: _231  and  _234
REMARK   83  A    between atoms: _234  and  _235
REMARK   84  A    between atoms: _241  and  _243
REMARK   85  A    between atoms: _243  and  _244
REMARK   86  A    between atoms: _246  and  _248
REMARK   87  A    between atoms: _248  and  _249
REMARK   88  A    between atoms: _248  and  _251
REMARK   89  A    between atoms: _251  and  _252
REMARK   90  A    between atoms: _252  and  _253
REMARK   91  A    between atoms: _253  and  _254
REMARK   92  A    between atoms: _254  and  _255
REMARK   93  A    between atoms: _259  and  _261
REMARK   94  A    between atoms: _261  and  _262
REMARK   95  A    between atoms: _265  and  _267
REMARK   96  A    between atoms: _267  and  _268
REMARK   97  A    between atoms: _267  and  _270
REMARK   98  A    between atoms: _273  and  _275
REMARK   99  A    between atoms: _275  and  _276
REMARK  100  A    between atoms: _275  and  _278
REMARK  101  A    between atoms: _278  and  _279
REMARK  102  A    between atoms: _279  and  _280
REMARK  103  A    between atoms: _285  and  _287
REMARK  104  A    between atoms: _287  and  _288
REMARK  105  A    between atoms: _287  and  _290
REMARK  106  A    between atoms: _290  and  _291
REMARK  107  A    between atoms: _294  and  _296
REMARK  108  A    between atoms: _296  and  _297
REMARK  109  A    between atoms: _300  and  _302
REMARK  110  A    between atoms: _302  and  _303
REMARK  111  A    between atoms: _302  and  _305
REMARK  112  A    between atoms: _308  and  _310
REMARK  113  A    between atoms: _310  and  _311
REMARK  114  A    between atoms: _310  and  _313
REMARK  115  A    between atoms: _313  and  _314
REMARK  116  A    between atoms: _317  and  _319
REMARK  117  A    between atoms: _319  and  _320
REMARK  118  A    between atoms: _322  and  _324
REMARK  119  A    between atoms: _324  and  _325
REMARK  120  A    between atoms: _324  and  _327
REMARK  121  A    between atoms: _327  and  _328
REMARK  122  A    between atoms: _330  and  _332
REMARK  123  A    between atoms: _332  and  _333
REMARK  124  A    between atoms: _332  and  _335
REMARK  125  A    between atoms: _335  and  _336
REMARK  126  A    between atoms: _339  and  _341
REMARK  127  A    between atoms: _341  and  _342
REMARK  128  A    between atoms: _341  and  _344
REMARK  129  A    between atoms: _344  and  _345
REMARK  130  A    between atoms: _348  and  _350
REMARK  131  A    between atoms: _350  and  _351
REMARK  132  A    between atoms: _350  and  _353
REMARK  133  A    between atoms: _353  and  _354
REMARK  134  A    between atoms: _358  and  _359
REMARK  135  A    between atoms: _365  and  _366
REMARK  136  A    between atoms: _371  and  _373
REMARK  137  A    between atoms: _373  and  _374
REMARK  138  A    between atoms: _373  and  _376
REMARK  139  A    between atoms: _376  and  _377
REMARK  140  A    between atoms: _380  and  _382
REMARK  141  A    between atoms: _382  and  _383
REMARK  142  A    between atoms: _382  and  _385
REMARK  143  A    between atoms: _385  and  _386
REMARK  144  A    between atoms: _389  and  _391
REMARK  145  A    between atoms: _391  and  _392
REMARK  146  A    between atoms: _391  and  _394
REMARK  147  A    between atoms: _397  and  _399
REMARK  148  A    between atoms: _399  and  _400
REMARK  149  A    between atoms: _399  and  _402
REMARK  150  A    between atoms: _402  and  _403
REMARK  151  A    between atoms: _413  and  _415
REMARK  152  A    between atoms: _415  and  _416
REMARK  153  A    between atoms: _415  and  _418
REMARK  154  A    between atoms: _418  and  _419
REMARK  155  A    between atoms: _424  and  _426
REMARK  156  A    between atoms: _426  and  _427
REMARK  157  A    between atoms: _426  and  _429
REMARK  158  A    between atoms: _429  and  _430
REMARK  159  A    between atoms: _430  and  _431
REMARK  160  A    between atoms: _431  and  _432
REMARK                            x       y       z     vdW  Elec       q    Type
REMARK                         _______ _______ _______ _____ _____    ______ ____
ROOT
ATOM      1  CB  ASN A   1      -8.203   2.618   6.763  0.00  0.00    +0.110 C 
ENDROOT
BRANCH   1   2
ATOM      2  CG  ASN A   1      -7.169   2.333   7.839  0.00  0.00    +0.221 C 
ATOM      3  ND2 ASN A   1      -7.387   1.293   8.629  0.00  0.00    -0.329 N 
ATOM      4 HD21 ASN A   1      -6.713   1.066   9.388  0.00  0.00    +0.145 HD
ATOM      5 HD22 ASN A   1      -8.232   0.703   8.490  0.00  0.00    +0.145 HD
ATOM      6  OD1 ASN A   1      -6.187   3.060   7.962  0.00  0.00    -0.275 OA
ENDBRANCH   1   2
BRANCH   1   7
ATOM      7  CA  ASN A   1      -9.036   1.385   6.376  0.00  0.00    +0.142 C 
BRANCH   7   8
ATOM      8  N   ASN A   1      -8.210   0.420   5.678  0.00  0.00    -0.239 NA
ATOM      9  H   ASN A   1      -7.670   0.724   4.843  0.00  0.00    +0.142 HD
ENDBRANCH   7   8
BRANCH   7  10
ATOM     10  C   ASN A   1     -10.238   1.863   5.565  0.00  0.00    +0.225 C 
ATOM     11  O   ASN A   1     -10.125   2.214   4.385  0.00  0.00    -0.287 OA
ENDBRANCH   7  10
ENDBRANCH   1   7
TORSDOF 4
REMARK  Name = ../refined-set-2016/3ibn/3ibn_pocket.pdb
REMARK  160 active torsions:
REMARK  status: ('A' for Active; 'I' for Inactive)
REMARK    1  A    between atoms: _1  and  _3
REMARK    2  A    between atoms: _3  and  _4
REMARK    3  A    between atoms: _3  and  _6
REMARK    4  A    between atoms: _6  and  _7
REMARK    5  A    between atoms: _17  and  _19
REMARK    6  A    between atoms: _19  and  _20
REMARK    7  A    between atoms: _19  and  _22
REMARK    8  A    between atoms: _22  and  _23
REMARK    9  A    between atoms: _28  and  _29
REMARK   10  A    between atoms: _31  and  _33
REMARK   11  A    between atoms: _33  and  _34
REMARK   12  A    between atoms: _33  and  _36
REMARK   13  A    between atoms: _36  and  _37
REMARK   14  A    between atoms: _40  and  _41
REMARK   15  A    between atoms: _46  and  _48
REMARK   16  A    between atoms: _48  and  _49
REMARK   17  A    between atoms: _48  and  _51
REMARK   18  A    between atoms: _51  and  _52
REMARK   19  A    between atoms: _57  and  _59
REMARK   20  A    between atoms: _59  and  _60
REMARK   21  A    between atoms: _63  and  _65
REMARK   22  A    between atoms: _65  and  _66
REMARK   23  A    between atoms: _65  and  _68
REMARK   24  A    between atoms: _68  and  _69
REMARK   25  A    between atoms: _74  and  _76
REMARK   26  A    between atoms: _76  and  _77
REMARK   27  A    between atoms: _76  and  _79
REMARK   28  A    between atoms: _79  and  _80
REMARK   29  A    between atoms: _83  and  _85
REMARK   30  A    between atoms: _85  and  _86
REMARK   31  A    between atoms: _85  and  _88
REMARK   32  A    between atoms: _88  and  _89
REMARK   33  A    between atoms: _89  and  _90
REMARK   34  A    between atoms: _95  and  _97
REMARK   35  A    between atoms: _97  and  _98
REMARK   36  A    between atoms: _97  and  _100
REMARK   37  A    between atoms: _100  and  _101
REMARK   38  A    between atoms: _107  and  _109
REMARK   39  A    between atoms: _120  and  _123
REMARK   40  A    between atoms: _123  and  _124
REMARK   41  A    between atoms: _132  and  _133
REMARK   42  A    between atoms: _141  and  _143
REMARK   43  A    between atoms: _143  and  _144
REMARK   44  A    between atoms: _143  and  _146
REMARK   45  A    between atoms: _146  and  _147
REMARK   46  A    between atoms: _147  and  _148
REMARK   47  A    between atoms: _151  and  _153
REMARK   48  A    between atoms: _153  and  _154
REMARK   49  A    between atoms: _153  and  _156
REMARK   50  A    between atoms: _156  and  _157
REMARK   51  A    between atoms: _162  and  _164
REMARK   52  A    between atoms: _164  and  _165
REMARK   53  A    between atoms: _164  and  _167
REMARK   54  A    between atoms: _167  and  _168
REMARK   55  A    between atoms: _168  and  _169
REMARK   56  A    between atoms: _172  and  _174
REMARK   57  A    between atoms: _174  and  _175
REMARK   58  A    between atoms: _174  and  _177
REMARK   59  A    between atoms: _177  and  _178
REMARK   60  A    between atoms: _181  and  _183
REMARK   61  A    between atoms: _183  and  _184
REMARK   62  A    between atoms: _183  and  _186
REMARK   63  A    between atoms: _186  and  _187
REMARK   64  A    between atoms: _188  and  ZN_441
REMARK   65  A    between atoms: _192  and  _194
REMARK   66  A    between atoms: _194  and  _195
REMARK   67  A    between atoms: _194  and  _197
REMARK   68  A    between atoms: _197  and  _198
REMARK   69  A    between atoms: _201  and  _203
REMARK   70  A    between atoms: _203  and  _204
REMARK   71  A    between atoms: _203  and  _206
REMARK   72  A    between atoms: _209  and  _211
REMARK   73  A    between atoms: _211  and  _212
REMARK   74  A    between atoms: _211  and  _214
REMARK   75  A    between atoms: _214  and  _215
REMARK   76  A    between atoms: _220  and  _222
REMARK   77  A    between atoms: _222  and  _223
REMARK   78  A    between atoms: _222  and  _225
REMARK   79  A    between atoms: _225  and  _226
REMARK   80  A    between atoms: _229  and  _231
REMARK   81  A    between atoms: _231  and  _232
REMARK   82  A    between atoms: _231  and  _234
REMARK   83  A    between atoms: _234  and  _235
REMARK   84  A    between atoms: _241  and  _243
REMARK   85  A    between atoms: _243  and  _244
REMARK   86  A    between atoms: _246  and  _248
REMARK   87  A    between atoms: _248  and  _249
REMARK   88  A    between atoms: _248  and  _251
REMARK   89  A    between atoms: _251  and  _252
REMARK   90  A    between atoms: _252  and  _253
REMARK   91  A    between atoms: _253  and  _254
REMARK   92  A    between atoms: _254  and  _255
REMARK   93  A    between atoms: _259  and  _261
REMARK   94  A    between atoms: _261  and  _262
REMARK   95  A    between atoms: _265  and  _267
REMARK   96  A    between atoms: _267  and  _268
REMARK   97  A    between atoms: _267  and  _270
REMARK   98  A    between atoms: _273  and  _275
REMARK   99  A    between atoms: _275  and  _276
REMARK  100  A    between atoms: _275  and  _278
REMARK  101  A    between atoms: _278  and  _279
REMARK  102  A    between atoms: _279  and  _280
REMARK  103  A    between atoms: _285  and  _287
REMARK  104  A    between atoms: _287  and  _288
REMARK  105  A    between atoms: _287  and  _290
REMARK  106  A    between atoms: _290  and  _291
REMARK  107  A    between atoms: _294  and  _296
REMARK  108  A    between atoms: _296  and  _297
REMARK  109  A    between atoms: _300  and  _302
REMARK  110  A    between atoms: _302  and  _303
REMARK  111  A    between atoms: _302  and  _305
REMARK  112  A    between atoms: _308  and  _310
REMARK  113  A    between atoms: _310  and  _311
REMARK  114  A    between atoms: _310  and  _313
REMARK  115  A    between atoms: _313  and  _314
REMARK  116  A    between atoms: _317  and  _319
REMARK  117  A    between atoms: _319  and  _320
REMARK  118  A    between atoms: _322  and  _324
REMARK  119  A    between atoms: _324  and  _325
REMARK  120  A    between atoms: _324  and  _327
REMARK  121  A    between atoms: _327  and  _328
REMARK  122  A    between atoms: _330  and  _332
REMARK  123  A    between atoms: _332  and  _333
REMARK  124  A    between atoms: _332  and  _335
REMARK  125  A    between atoms: _335  and  _336
REMARK  126  A    between atoms: _339  and  _341
REMARK  127  A    between atoms: _341  and  _342
REMARK  128  A    between atoms: _341  and  _344
REMARK  129  A    between atoms: _344  and  _345
REMARK  130  A    between atoms: _348  and  _350
REMARK  131  A    between atoms: _350  and  _351
REMARK  132  A    between atoms: _350  and  _353
REMARK  133  A    between atoms: _353  and  _354
REMARK  134  A    between atoms: _358  and  _359
REMARK  135  A    between atoms: _365  and  _366
REMARK  136  A    between atoms: _371  and  _373
REMARK  137  A    between atoms: _373  and  _374
REMARK  138  A    between atoms: _373  and  _376
REMARK  139  A    between atoms: _376  and  _377
REMARK  140  A    between atoms: _380  and  _382
REMARK  141  A    between atoms: _382  and  _383
REMARK  142  A    between atoms: _382  and  _385
REMARK  143  A    between atoms: _385  and  _386
REMARK  144  A    between atoms: _389  and  _391
REMARK  145  A    between atoms: _391  and  _392
REMARK  146  A    between atoms: _391  and  _394
REMARK  147  A    between atoms: _397  and  _399
REMARK  148  A    between atoms: _399  and  _400
REMARK  149  A    between atoms: _399  and  _402
REMARK  150  A    between atoms: _402  and  _403
REMARK  151  A    between atoms: _413  and  _415
REMARK  152  A    between atoms: _415  and  _416
REMARK  153  A    between atoms: _415  and  _418
REMARK  154  A    between atoms: _418  and  _419
REMARK  155  A    between atoms: _424  and  _426
REMARK  156  A    between atoms: _426  and  _427
REMARK  157  A    between atoms: _426  and  _429
REMARK  158  A    between atoms: _429  and  _430
REMARK  159  A    between atoms: _430  and  _431
REMARK  160  A    between atoms: _431  and  _432
REMARK                            x       y       z     vdW  Elec       q    Type
REMARK                         _______ _______ _______ _____ _____    ______ ____
ROOT
ATOM      1  C   UNK A   4     -10.095  -1.478  10.206  0.00  0.00    +0.000 C 
ATOM      2  C   UNK A   4     -10.179  -2.782  10.961  0.00  0.00    +0.000 C 
ATOM      3  O   UNK A   4     -10.884  -2.871  11.964  0.00  0.00    +0.000 OA
ATOM      4  N   VAL A   5      -9.447  -3.786  10.491  0.00  0.00    +0.000 N 
ATOM      5  CA  VAL A   5      -9.445  -5.087  11.151  0.00  0.00    +0.000 C 
ATOM      6  C   VAL A   5      -8.048  -5.631  11.401  0.00  0.00    +0.000 C 
ATOM      7  N   UNK A   6      -7.981  -6.597  12.312  0.00  0.00    +0.000 N 
ATOM      8  H   UNK A   6      -8.857  -6.858  12.809  0.00  0.00    +0.000 HD
ATOM      9  C   UNK A   6      -6.760  -7.315  12.661  0.00  0.00    +0.000 C 
ATOM     10  C   UNK A   6      -6.323  -6.979  14.089  0.00  0.00    +0.000 C 
ATOM     11  C   UNK A   6      -5.848  -5.572  14.257  0.00  0.00    +0.000 A 
ATOM     12  C   UNK A   6      -6.480  -4.465  14.713  0.00  0.00    +0.000 A 
ATOM     13  N   UNK A   6      -5.585  -3.428  14.649  0.00  0.00    +0.000 N 
ATOM     14 ZN   UNK A   6      -6.569  -1.679  15.222  0.00  0.00    +0.000 Zn
ATOM     15  N   UNK A   4      -7.297  -0.679  13.628  0.00  0.00    +0.000 N 
ATOM     16  C   UNK A   4      -7.958   0.454  13.479  0.00  0.00    +0.000 A 
ATOM     17  N   UNK A   4      -8.473   0.480  12.265  0.00  0.00    +0.000 NA
ATOM     18  C   UNK A   4      -8.139  -0.680  11.601  0.00  0.00    +0.000 A 
ATOM     19  C   UNK A   4      -7.391  -1.405  12.466  0.00  0.00    +0.000 A 
ATOM     20  C   UNK A   6      -4.439  -3.881  14.168  0.00  0.00    +0.000 A 
ATOM     21  N   UNK A   6      -4.572  -5.170  13.923  0.00  0.00    +0.000 NA
ATOM     22  O   VAL A   5      -7.078  -5.199  10.786  0.00  0.00    +0.000 OA
ATOM     23  H   VAL A   5      -8.867  -3.642   9.640  0.00  0.00    +0.000 HD
ATOM     24  C   UNK A   4      -8.643  -0.995  10.227  0.00  0.00    +0.000 C 
ENDROOT
BRANCH  14  25
ATOM     25  N   UNK A   6      -8.079  -2.275  16.539  0.00  0.00    +0.000 N 
ATOM     26  C   UNK A   6      -7.736  -3.141  17.476  0.00  0.00    +0.000 A 
ATOM     27  N   UNK A   6      -8.836  -3.583  18.058  0.00  0.00    +0.000 NA
ATOM     28  C   UNK A   6      -9.923  -2.980  17.472  0.00  0.00    +0.000 A 
ATOM     29  C   UNK A   6      -9.452  -2.149  16.512  0.00  0.00    +0.000 A 
BRANCH  29  30
ATOM     30  C   UNK A   6     -10.156  -1.209  15.585  0.00  0.00    +0.000 C 
BRANCH  30  31
ATOM     31  C   UNK A   6     -11.664  -1.450  15.472  0.00  0.00    +0.000 C 
BRANCH  31  32
ATOM     32  C   UNK A   6     -12.304  -0.226  14.827  0.00  0.00    +0.000 C 
ATOM     33  N   UNK A   4     -13.235   0.403  15.537  0.00  0.00    +0.000 N 
ATOM     34  H   UNK A   4     -13.508   0.025  16.467  0.00  0.00    +0.000 HD
ATOM     35  O   UNK A   6     -11.962   0.133  13.701  0.00  0.00    +0.000 OA
BRANCH  33  36
ATOM     36  C   UNK A   4     -13.883   1.615  15.039  0.00  0.00    +0.000 C 
BRANCH  36  37
ATOM     37  C   UNK A   4     -13.250   2.752  15.830  0.00  0.00    +0.000 C 
ATOM     38  O   UNK A   4     -13.467   2.883  17.038  0.00  0.00    +0.000 OA
ATOM     39  N   VAL A   5     -12.451   3.554  15.132  0.00  0.00    +0.000 N 
ATOM     40  H   VAL A   5     -12.353   3.385  14.111  0.00  0.00    +0.000 HD
BRANCH  39  41
ATOM     41  CA  VAL A   5     -11.704   4.660  15.725  0.00  0.00    +0.000 C 
BRANCH  41  42
ATOM     42  C   VAL A   5     -12.439   6.000  15.748  0.00  0.00    +0.000 C 
ATOM     43  N   UNK A   6     -12.474   6.622  16.927  0.00  0.00    +0.000 N 
ATOM     44  H   UNK A   6     -12.012   6.171  17.743  0.00  0.00    +0.000 HD
ATOM     45  O   VAL A   5     -12.950   6.455  14.724  0.00  0.00    +0.000 OA
BRANCH  43  46
ATOM     46  C   UNK A   6     -13.135   7.912  17.120  0.00  0.00    +0.000 C 
BRANCH  46  47
ATOM     47  C   UNK A   6     -12.216   8.887  17.864  0.00  0.00    +0.000 C 
ATOM     48  O   UNK A   6     -11.414   8.472  18.701  0.00  0.00    +0.000 OA
ENDBRANCH  46  47
BRANCH  46  49
ATOM     49  C   UNK A   6     -14.421   7.750  17.954  0.00  0.00    +0.000 C 
BRANCH  49  50
ATOM     50  C   UNK A   6     -15.260   6.566  17.580  0.00  0.00    +0.000 A 
ATOM     51  N   UNK A   6     -14.851   5.263  17.783  0.00  0.00    +0.000 NA
ATOM     52  C   UNK A   6     -15.810   4.438  17.406  0.00  0.00    +0.000 A 
ATOM     53  N   UNK A   6     -16.828   5.156  16.962  0.00  0.00    +0.000 NA
ATOM     54  C   UNK A   6     -16.508   6.488  17.058  0.00  0.00    +0.000 A 
ENDBRANCH  49  50
ENDBRANCH  46  49
ENDBRANCH  43  46
ENDBRANCH  41  42
BRANCH  41  55
ATOM     55  CB  VAL A   5     -10.358   4.844  14.978  0.00  0.00    +0.000 C 
ATOM     56  CG2 VAL A   5      -9.445   5.784  15.755  0.00  0.00    +0.000 C 
ATOM     57  CG1 VAL A   5      -9.696   3.492  14.769  0.00  0.00    +0.000 C 
ENDBRANCH  41  55
ENDBRANCH  39  41
ENDBRANCH  36  37
BRANCH  36  58
ATOM     58  C   UNK A   4     -15.395   1.558  15.268  0.00  0.00    +0.000 C 
BRANCH  58  59
ATOM     59  C   UNK A   4     -16.098   0.480  14.437  0.00  0.00    +0.000 C 
ATOM     60  C   UNK A   4     -16.778  -0.523  15.350  0.00  0.00    +0.000 C 
ATOM     61  C   UNK A   4     -17.114   1.131  13.516  0.00  0.00    +0.000 C 
ENDBRANCH  58  59
ENDBRANCH  36  58
ENDBRANCH  33  36
ENDBRANCH  31  32
BRANCH  31  62
ATOM     62  N   UNK A   6     -11.928  -2.670  14.717  0.00  0.00    +0.000 N 
ATOM     63  C   LEU A   2     -12.575  -3.696  15.258  0.00  0.00    +0.000 C 
ATOM     64  O   LEU A   2     -13.008  -3.680  16.410  0.00  0.00    +0.000 OA
ATOM     65  H   UNK A   6     -11.602  -2.738  13.732  0.00  0.00    +0.000 HD
BRANCH  63  66
ATOM     66  CA  LEU A   2     -12.784  -4.918  14.358  0.00  0.00    +0.000 C 
BRANCH  66  67
ATOM     67  N   LEU A   2     -12.394  -6.141  15.043  0.00  0.00    +0.000 N 
ATOM     68  H   LEU A   2     -13.057  -6.562  15.724  0.00  0.00    +0.000 HD
ATOM     69  C   GLU A   1     -11.226  -6.744  14.836  0.00  0.00    +0.000 C 
ATOM     70  O   GLU A   1     -10.370  -6.329  14.051  0.00  0.00    +0.000 OA
BRANCH  69  71
ATOM     71  CA  GLU A   1     -10.996  -8.010  15.647  0.00  0.00    +0.000 C 
BRANCH  71  72
ATOM     72  N   GLU A   1     -10.490  -9.077  14.794  0.00  0.00    +0.000 NA
ATOM     73  H   GLU A   1      -9.864  -8.838  13.999  0.00  0.00    +0.000 HD
ENDBRANCH  71  72
BRANCH  71  74
ATOM     74  CB  GLU A   1     -10.014  -7.724  16.792  0.00  0.00    +0.000 C 
BRANCH  74  75
ATOM     75  CG  GLU A   1     -10.576  -6.832  17.911  0.00  0.00    +0.000 C 
BRANCH  75  76
ATOM     76  CD  GLU A   1      -9.632  -6.726  19.105  0.00  0.00    +0.000 C 
ATOM     77  OE2 GLU A   1      -9.518  -5.629  19.689  0.00  0.00    +0.000 OA
ATOM     78  OE1 GLU A   1      -9.012  -7.748  19.470  0.00  0.00    +0.000 OA
ENDBRANCH  75  76
ENDBRANCH  74  75
ENDBRANCH  71  74
ENDBRANCH  69  71
ENDBRANCH  66  67
BRANCH  66  79
ATOM     79  CB  LEU A   2     -14.256  -5.007  13.949  0.00  0.00    +0.000 C 
BRANCH  79  80
ATOM     80  CG  LEU A   2     -14.944  -3.698  13.549  0.00  0.00    +0.000 C 
ATOM     81  CD2 LEU A   2     -16.429  -3.950  13.380  0.00  0.00    +0.000 C 
ATOM     82  CD1 LEU A   2     -14.344  -3.163  12.261  0.00  0.00    +0.000 C 
ENDBRANCH  79  80
ENDBRANCH  66  79
ENDBRANCH  63  66
ENDBRANCH  31  62
ENDBRANCH  30  31
ENDBRANCH  29  30
ENDBRANCH  14  25
BRANCH   1  84
ATOM     83  C   UNK A   3     -11.499   0.513  10.216  0.00  0.00    +0.000 C 
ATOM     84  N   UNK A   4     -10.969  -0.518  10.865  0.00  0.00    +0.000 N 
ATOM     85  H   UNK A   4     -11.185  -0.643  11.875  0.00  0.00    +0.000 HD
ATOM     86  O   UNK A   3     -11.268   0.750   9.031  0.00  0.00    +0.000 OA
BRANCH  83  87
ATOM     87  C   UNK A   3     -12.378   1.446  11.037  0.00  0.00    +0.000 C 
BRANCH  87  90
ATOM     88  C   LEU A   2     -12.367   3.882  11.138  0.00  0.00    +0.000 C 
ATOM     89  O   LEU A   2     -12.447   3.890  12.367  0.00  0.00    +0.000 OA
ATOM     90  N   UNK A   3     -12.375   2.763  10.413  0.00  0.00    +0.000 N 
ATOM     91  H   UNK A   3     -12.379   2.832   9.375  0.00  0.00    +0.000 HD
BRANCH  88  92
ATOM     92  CA  LEU A   2     -12.275   5.186  10.356  0.00  0.00    +0.000 C 
BRANCH  92  94
ATOM     93  C   GLU A   1     -12.665   7.569  10.589  0.00  0.00    +0.000 C 
ATOM     94  N   LEU A   2     -12.577   6.366  11.155  0.00  0.00    +0.000 N 
ATOM     95  H   LEU A   2     -12.726   6.268  12.180  0.00  0.00    +0.000 HD
ATOM     96  O   GLU A   1     -12.535   7.747   9.373  0.00  0.00    +0.000 OA
BRANCH  93  97
ATOM     97  CA  GLU A   1     -12.996   8.738  11.515  0.00  0.00    +0.000 C 
BRANCH  97  98
ATOM     98  CB  GLU A   1     -11.710   9.452  12.011  0.00  0.00    +0.000 C 
ATOM     99  CG2 GLU A   1     -11.003   8.620  13.059  0.00  0.00    +0.000 C 
BRANCH  98 100
ATOM    100  CG1 GLU A   1     -10.817   9.783  10.817  0.00  0.00    +0.000 C 
ATOM    101  CD1 GLU A   1      -9.586  10.605  11.179  0.00  0.00    +0.000 C 
ENDBRANCH  98 100
ENDBRANCH  97  98
BRANCH  97 102
ATOM    102  N   GLU A   1     -13.806   8.273  12.624  0.00  0.00    +0.000 NA
ATOM    103  H   GLU A   1     -13.401   7.625  13.330  0.00  0.00    +0.000 HD
ENDBRANCH  97 102
ENDBRANCH  93  97
ENDBRANCH  92  94
BRANCH  92 104
ATOM    104  CB  LEU A   2     -10.865   5.310   9.769  0.00  0.00    +0.000 C 
BRANCH 104 105
ATOM    105  CG  LEU A   2      -9.742   5.293  10.818  0.00  0.00    +0.000 C 
BRANCH 105 106
ATOM    106  CD  LEU A   2      -9.098   3.927  10.970  0.00  0.00    +0.000 C 
ATOM    107  OE1 LEU A   2      -9.784   2.916  11.128  0.00  0.00    +0.000 OA
ATOM    108  NE2 LEU A   2      -7.769   3.891  10.924  0.00  0.00    +0.000 N 
ATOM    109 HE21 LEU A   2      -7.270   2.984  11.023  0.00  0.00    +0.000 HD
ATOM    110 HE22 LEU A   2      -7.229   4.770  10.789  0.00  0.00    +0.000 HD
ENDBRANCH 105 106
ENDBRANCH 104 105
ENDBRANCH  92 104
ENDBRANCH  88  92
ENDBRANCH  87  90
BRANCH  87 111
ATOM    111  C   UNK A   3     -13.811   0.894  11.231  0.00  0.00    +0.000 C 
BRANCH 111 112
ATOM    112  C   UNK A   3     -14.453   0.322   9.993  0.00  0.00    +0.000 A 
ATOM    113  C   UNK A   3     -14.028  -0.892   9.456  0.00  0.00    +0.000 A 
ATOM    114  C   UNK A   3     -14.673  -1.456   8.360  0.00  0.00    +0.000 A 
ATOM    115  C   UNK A   3     -15.756  -0.806   7.785  0.00  0.00    +0.000 A 
ATOM    116  C   UNK A   3     -16.190   0.412   8.312  0.00  0.00    +0.000 A 
ATOM    117  C   UNK A   3     -15.538   0.966   9.407  0.00  0.00    +0.000 A 
ENDBRANCH 111 112
ENDBRANCH  87 111
ENDBRANCH  83  87
ENDBRANCH   1  84
BRANCH   9 118
ATOM    118  C   UNK A   6      -7.203  -8.776  12.569  0.00  0.00    +0.000 C 
ATOM    119  O   UNK A   6      -8.207  -9.157  13.169  0.00  0.00    +0.000 OA
ENDBRANCH   9 118
BRANCH   5 120
ATOM    120  CB  VAL A   5     -10.181  -6.139  10.314  0.00  0.00    +0.000 C 
BRANCH 120 121
ATOM    121  CG  VAL A   5     -11.622  -5.826  10.045  0.00  0.00    +0.000 A 
ATOM    122  CD2 VAL A   5     -12.631  -6.447  10.786  0.00  0.00    +0.000 A 
ATOM    123  CE2 VAL A   5     -13.971  -6.230  10.484  0.00  0.00    +0.000 A 
ATOM    124  CZ  VAL A   5     -14.316  -5.376   9.428  0.00  0.00    +0.000 A 
ATOM    125  CE1 VAL A   5     -13.318  -4.748   8.691  0.00  0.00    +0.000 A 
ATOM    126  CD1 VAL A   5     -11.980  -4.972   9.001  0.00  0.00    +0.000 A 
ENDBRANCH 120 121
ENDBRANCH   5 120
TORSDOF 42
REMARK  Name = ../refined-set-2016/3ibn/3ibn_pocket.pdb
REMARK  160 active torsions:
REMARK  status: ('A' for Active; 'I' for Inactive)
REMARK    1  A    between atoms: _1  and  _3
REMARK    2  A    between atoms: _3  and  _4
REMARK    3  A    between atoms: _3  and  _6
REMARK    4  A    between atoms: _6  and  _7
REMARK    5  A    between atoms: _17  and  _19
REMARK    6  A    between atoms: _19  and  _20
REMARK    7  A    between atoms: _19  and  _22
REMARK    8  A    between atoms: _22  and  _23
REMARK    9  A    between atoms: _28  and  _29
REMARK   10  A    between atoms: _31  and  _33
REMARK   11  A    between atoms: _33  and  _34
REMARK   12  A    between atoms: _33  and  _36
REMARK   13  A    between atoms: _36  and  _37
REMARK   14  A    between atoms: _40  and  _41
REMARK   15  A    between atoms: _46  and  _48
REMARK   16  A    between atoms: _48  and  _49
REMARK   17  A    between atoms: _48  and  _51
REMARK   18  A    between atoms: _51  and  _52
REMARK   19  A    between atoms: _57  and  _59
REMARK   20  A    between atoms: _59  and  _60
REMARK   21  A    between atoms: _63  and  _65
REMARK   22  A    between atoms: _65  and  _66
REMARK   23  A    between atoms: _65  and  _68
REMARK   24  A    between atoms: _68  and  _69
REMARK   25  A    between atoms: _74  and  _76
REMARK   26  A    between atoms: _76  and  _77
REMARK   27  A    between atoms: _76  and  _79
REMARK   28  A    between atoms: _79  and  _80
REMARK   29  A    between atoms: _83  and  _85
REMARK   30  A    between atoms: _85  and  _86
REMARK   31  A    between atoms: _85  and  _88
REMARK   32  A    between atoms: _88  and  _89
REMARK   33  A    between atoms: _89  and  _90
REMARK   34  A    between atoms: _95  and  _97
REMARK   35  A    between atoms: _97  and  _98
REMARK   36  A    between atoms: _97  and  _100
REMARK   37  A    between atoms: _100  and  _101
REMARK   38  A    between atoms: _107  and  _109
REMARK   39  A    between atoms: _120  and  _123
REMARK   40  A    between atoms: _123  and  _124
REMARK   41  A    between atoms: _132  and  _133
REMARK   42  A    between atoms: _141  and  _143
REMARK   43  A    between atoms: _143  and  _144
REMARK   44  A    between atoms: _143  and  _146
REMARK   45  A    between atoms: _146  and  _147
REMARK   46  A    between atoms: _147  and  _148
REMARK   47  A    between atoms: _151  and  _153
REMARK   48  A    between atoms: _153  and  _154
REMARK   49  A    between atoms: _153  and  _156
REMARK   50  A    between atoms: _156  and  _157
REMARK   51  A    between atoms: _162  and  _164
REMARK   52  A    between atoms: _164  and  _165
REMARK   53  A    between atoms: _164  and  _167
REMARK   54  A    between atoms: _167  and  _168
REMARK   55  A    between atoms: _168  and  _169
REMARK   56  A    between atoms: _172  and  _174
REMARK   57  A    between atoms: _174  and  _175
REMARK   58  A    between atoms: _174  and  _177
REMARK   59  A    between atoms: _177  and  _178
REMARK   60  A    between atoms: _181  and  _183
REMARK   61  A    between atoms: _183  and  _184
REMARK   62  A    between atoms: _183  and  _186
REMARK   63  A    between atoms: _186  and  _187
REMARK   64  A    between atoms: _188  and  ZN_441
REMARK   65  A    between atoms: _192  and  _194
REMARK   66  A    between atoms: _194  and  _195
REMARK   67  A    between atoms: _194  and  _197
REMARK   68  A    between atoms: _197  and  _198
REMARK   69  A    between atoms: _201  and  _203
REMARK   70  A    between atoms: _203  and  _204
REMARK   71  A    between atoms: _203  and  _206
REMARK   72  A    between atoms: _209  and  _211
REMARK   73  A    between atoms: _211  and  _212
REMARK   74  A    between atoms: _211  and  _214
REMARK   75  A    between atoms: _214  and  _215
REMARK   76  A    between atoms: _220  and  _222
REMARK   77  A    between atoms: _222  and  _223
REMARK   78  A    between atoms: _222  and  _225
REMARK   79  A    between atoms: _225  and  _226
REMARK   80  A    between atoms: _229  and  _231
REMARK   81  A    between atoms: _231  and  _232
REMARK   82  A    between atoms: _231  and  _234
REMARK   83  A    between atoms: _234  and  _235
REMARK   84  A    between atoms: _241  and  _243
REMARK   85  A    between atoms: _243  and  _244
REMARK   86  A    between atoms: _246  and  _248
REMARK   87  A    between atoms: _248  and  _249
REMARK   88  A    between atoms: _248  and  _251
REMARK   89  A    between atoms: _251  and  _252
REMARK   90  A    between atoms: _252  and  _253
REMARK   91  A    between atoms: _253  and  _254
REMARK   92  A    between atoms: _254  and  _255
REMARK   93  A    between atoms: _259  and  _261
REMARK   94  A    between atoms: _261  and  _262
REMARK   95  A    between atoms: _265  and  _267
REMARK   96  A    between atoms: _267  and  _268
REMARK   97  A    between atoms: _267  and  _270
REMARK   98  A    between atoms: _273  and  _275
REMARK   99  A    between atoms: _275  and  _276
REMARK  100  A    between atoms: _275  and  _278
REMARK  101  A    between atoms: _278  and  _279
REMARK  102  A    between atoms: _279  and  _280
REMARK  103  A    between atoms: _285  and  _287
REMARK  104  A    between atoms: _287  and  _288
REMARK  105  A    between atoms: _287  and  _290
REMARK  106  A    between atoms: _290  and  _291
REMARK  107  A    between atoms: _294  and  _296
REMARK  108  A    between atoms: _296  and  _297
REMARK  109  A    between atoms: _300  and  _302
REMARK  110  A    between atoms: _302  and  _303
REMARK  111  A    between atoms: _302  and  _305
REMARK  112  A    between atoms: _308  and  _310
REMARK  113  A    between atoms: _310  and  _311
REMARK  114  A    between atoms: _310  and  _313
REMARK  115  A    between atoms: _313  and  _314
REMARK  116  A    between atoms: _317  and  _319
REMARK  117  A    between atoms: _319  and  _320
REMARK  118  A    between atoms: _322  and  _324
REMARK  119  A    between atoms: _324  and  _325
REMARK  120  A    between atoms: _324  and  _327
REMARK  121  A    between atoms: _327  and  _328
REMARK  122  A    between atoms: _330  and  _332
REMARK  123  A    between atoms: _332  and  _333
REMARK  124  A    between atoms: _332  and  _335
REMARK  125  A    between atoms: _335  and  _336
REMARK  126  A    between atoms: _339  and  _341
REMARK  127  A    between atoms: _341  and  _342
REMARK  128  A    between atoms: _341  and  _344
REMARK  129  A    between atoms: _344  and  _345
REMARK  130  A    between atoms: _348  and  _350
REMARK  131  A    between atoms: _350  and  _351
REMARK  132  A    between atoms: _350  and  _353
REMARK  133  A    between atoms: _353  and  _354
REMARK  134  A    between atoms: _358  and  _359
REMARK  135  A    between atoms: _365  and  _366
REMARK  136  A    between atoms: _371  and  _373
REMARK  137  A    between atoms: _373  and  _374
REMARK  138  A    between atoms: _373  and  _376
REMARK  139  A    between atoms: _376  and  _377
REMARK  140  A    between atoms: _380  and  _382
REMARK  141  A    between atoms: _382  and  _383
REMARK  142  A    between atoms: _382  and  _385
REMARK  143  A    between atoms: _385  and  _386
REMARK  144  A    between atoms: _389  and  _391
REMARK  145  A    between atoms: _391  and  _392
REMARK  146  A    between atoms: _391  and  _394
REMARK  147  A    between atoms: _397  and  _399
REMARK  148  A    between atoms: _399  and  _400
REMARK  149  A    between atoms: _399  and  _402
REMARK  150  A    between atoms: _402  and  _403
REMARK  151  A    between atoms: _413  and  _415
REMARK  152  A    between atoms: _415  and  _416
REMARK  153  A    between atoms: _415  and  _418
REMARK  154  A    between atoms: _418  and  _419
REMARK  155  A    between atoms: _424  and  _426
REMARK  156  A    between atoms: _426  and  _427
REMARK  157  A    between atoms: _426  and  _429
REMARK  158  A    between atoms: _429  and  _430
REMARK  159  A    between atoms: _430  and  _431
REMARK  160  A    between atoms: _431  and  _432
REMARK                            x       y       z     vdW  Elec       q    Type
REMARK                         _______ _______ _______ _____ _____    ______ ____
ROOT
ATOM      1  C   GLU A   1      -5.815  -8.517  20.901  0.00  0.00    +0.238 C 
ATOM      2  O   GLU A   1      -4.993  -9.017  21.669  0.00  0.00    -0.274 OA
ATOM      3  N   HIS A   2      -7.017  -8.116  21.294  0.00  0.00    -0.298 N 
ATOM      4  H   HIS A   2      -7.665  -7.665  20.617  0.00  0.00    +0.150 HD
ENDROOT
BRANCH   1   5
ATOM      5  CA  GLU A   1      -5.491  -8.341  19.434  0.00  0.00    +0.145 C 
BRANCH   5   6
ATOM      6  N   GLU A   1      -6.569  -8.939  18.669  0.00  0.00    -0.238 NA
ATOM      7  H   GLU A   1      -7.396  -8.363  18.412  0.00  0.00    +0.142 HD
ENDBRANCH   5   6
BRANCH   5   8
ATOM      8  CB  GLU A   1      -5.348  -6.871  19.068  0.00  0.00    +0.038 C 
BRANCH   8   9
ATOM      9  CG  GLU A   1      -5.038  -6.682  17.595  0.00  0.00    +0.116 C 
BRANCH   9  10
ATOM     10  CD  GLU A   1      -4.323  -5.386  17.335  0.00  0.00    +0.365 C 
ATOM     11  OE2 GLU A   1      -4.914  -4.317  17.592  0.00  0.00    -0.246 OA
ATOM     12  OE1 GLU A   1      -3.168  -5.438  16.885  0.00  0.00    -0.246 OA
ENDBRANCH   9  10
ENDBRANCH   8   9
ENDBRANCH   5   8
ENDBRANCH   1   5
BRANCH   3  13
ATOM     13  CA  HIS A   2      -7.421  -8.310  22.672  0.00  0.00    +0.143 C 
BRANCH  13  14
ATOM     14  C   HIS A   2      -7.817  -9.773  22.805  0.00  0.00    +0.227 C 
ATOM     15  O   HIS A   2      -8.164 -10.422  21.815  0.00  0.00    -0.286 OA
ENDBRANCH  13  14
BRANCH  13  16
ATOM     16  CB  HIS A   2      -8.611  -7.417  23.029  0.00  0.00    +0.075 C 
BRANCH  16  17
ATOM     17  CG  HIS A   2      -8.257  -5.969  23.178  0.00  0.00    +0.082 A 
ATOM     18  CD2 HIS A   2      -7.888  -5.251  24.265  0.00  0.00    +0.115 A 
ATOM     19  NE2 HIS A   2      -7.676  -3.960  23.845  0.00  0.00    -0.221 NA
ATOM     20  CE1 HIS A   2      -7.905  -3.888  22.546  0.00  0.00    +0.199 A 
ATOM     21  ND1 HIS A   2      -8.256  -5.088  22.117  0.00  0.00    -0.227 NA
ENDBRANCH  16  17
ENDBRANCH  13  16
ENDBRANCH   3  13
TORSDOF 9
REMARK  Name = ../refined-set-2016/3ibn/3ibn_pocket.pdb
REMARK  160 active torsions:
REMARK  status: ('A' for Active; 'I' for Inactive)
REMARK    1  A    between atoms: _1  and  _3
REMARK    2  A    between atoms: _3  and  _4
REMARK    3  A    between atoms: _3  and  _6
REMARK    4  A    between atoms: _6  and  _7
REMARK    5  A    between atoms: _17  and  _19
REMARK    6  A    between atoms: _19  and  _20
REMARK    7  A    between atoms: _19  and  _22
REMARK    8  A    between atoms: _22  and  _23
REMARK    9  A    between atoms: _28  and  _29
REMARK   10  A    between atoms: _31  and  _33
REMARK   11  A    between atoms: _33  and  _34
REMARK   12  A    between atoms: _33  and  _36
REMARK   13  A    between atoms: _36  and  _37
REMARK   14  A    between atoms: _40  and  _41
REMARK   15  A    between atoms: _46  and  _48
REMARK   16  A    between atoms: _48  and  _49
REMARK   17  A    between atoms: _48  and  _51
REMARK   18  A    between atoms: _51  and  _52
REMARK   19  A    between atoms: _57  and  _59
REMARK   20  A    between atoms: _59  and  _60
REMARK   21  A    between atoms: _63  and  _65
REMARK   22  A    between atoms: _65  and  _66
REMARK   23  A    between atoms: _65  and  _68
REMARK   24  A    between atoms: _68  and  _69
REMARK   25  A    between atoms: _74  and  _76
REMARK   26  A    between atoms: _76  and  _77
REMARK   27  A    between atoms: _76  and  _79
REMARK   28  A    between atoms: _79  and  _80
REMARK   29  A    between atoms: _83  and  _85
REMARK   30  A    between atoms: _85  and  _86
REMARK   31  A    between atoms: _85  and  _88
REMARK   32  A    between atoms: _88  and  _89
REMARK   33  A    between atoms: _89  and  _90
REMARK   34  A    between atoms: _95  and  _97
REMARK   35  A    between atoms: _97  and  _98
REMARK   36  A    between atoms: _97  and  _100
REMARK   37  A    between atoms: _100  and  _101
REMARK   38  A    between atoms: _107  and  _109
REMARK   39  A    between atoms: _120  and  _123
REMARK   40  A    between atoms: _123  and  _124
REMARK   41  A    between atoms: _132  and  _133
REMARK   42  A    between atoms: _141  and  _143
REMARK   43  A    between atoms: _143  and  _144
REMARK   44  A    between atoms: _143  and  _146
REMARK   45  A    between atoms: _146  and  _147
REMARK   46  A    between atoms: _147  and  _148
REMARK   47  A    between atoms: _151  and  _153
REMARK   48  A    between atoms: _153  and  _154
REMARK   49  A    between atoms: _153  and  _156
REMARK   50  A    between atoms: _156  and  _157
REMARK   51  A    between atoms: _162  and  _164
REMARK   52  A    between atoms: _164  and  _165
REMARK   53  A    between atoms: _164  and  _167
REMARK   54  A    between atoms: _167  and  _168
REMARK   55  A    between atoms: _168  and  _169
REMARK   56  A    between atoms: _172  and  _174
REMARK   57  A    between atoms: _174  and  _175
REMARK   58  A    between atoms: _174  and  _177
REMARK   59  A    between atoms: _177  and  _178
REMARK   60  A    between atoms: _181  and  _183
REMARK   61  A    between atoms: _183  and  _184
REMARK   62  A    between atoms: _183  and  _186
REMARK   63  A    between atoms: _186  and  _187
REMARK   64  A    between atoms: _188  and  ZN_441
REMARK   65  A    between atoms: _192  and  _194
REMARK   66  A    between atoms: _194  and  _195
REMARK   67  A    between atoms: _194  and  _197
REMARK   68  A    between atoms: _197  and  _198
REMARK   69  A    between atoms: _201  and  _203
REMARK   70  A    between atoms: _203  and  _204
REMARK   71  A    between atoms: _203  and  _206
REMARK   72  A    between atoms: _209  and  _211
REMARK   73  A    between atoms: _211  and  _212
REMARK   74  A    between atoms: _211  and  _214
REMARK   75  A    between atoms: _214  and  _215
REMARK   76  A    between atoms: _220  and  _222
REMARK   77  A    between atoms: _222  and  _223
REMARK   78  A    between atoms: _222  and  _225
REMARK   79  A    between atoms: _225  and  _226
REMARK   80  A    between atoms: _229  and  _231
REMARK   81  A    between atoms: _231  and  _232
REMARK   82  A    between atoms: _231  and  _234
REMARK   83  A    between atoms: _234  and  _235
REMARK   84  A    between atoms: _241  and  _243
REMARK   85  A    between atoms: _243  and  _244
REMARK   86  A    between atoms: _246  and  _248
REMARK   87  A    between atoms: _248  and  _249
REMARK   88  A    between atoms: _248  and  _251
REMARK   89  A    between atoms: _251  and  _252
REMARK   90  A    between atoms: _252  and  _253
REMARK   91  A    between atoms: _253  and  _254
REMARK   92  A    between atoms: _254  and  _255
REMARK   93  A    between atoms: _259  and  _261
REMARK   94  A    between atoms: _261  and  _262
REMARK   95  A    between atoms: _265  and  _267
REMARK   96  A    between atoms: _267  and  _268
REMARK   97  A    between atoms: _267  and  _270
REMARK   98  A    between atoms: _273  and  _275
REMARK   99  A    between atoms: _275  and  _276
REMARK  100  A    between atoms: _275  and  _278
REMARK  101  A    between atoms: _278  and  _279
REMARK  102  A    between atoms: _279  and  _280
REMARK  103  A    between atoms: _285  and  _287
REMARK  104  A    between atoms: _287  and  _288
REMARK  105  A    between atoms: _287  and  _290
REMARK  106  A    between atoms: _290  and  _291
REMARK  107  A    between atoms: _294  and  _296
REMARK  108  A    between atoms: _296  and  _297
REMARK  109  A    between atoms: _300  and  _302
REMARK  110  A    between atoms: _302  and  _303
REMARK  111  A    between atoms: _302  and  _305
REMARK  112  A    between atoms: _308  and  _310
REMARK  113  A    between atoms: _310  and  _311
REMARK  114  A    between atoms: _310  and  _313
REMARK  115  A    between atoms: _313  and  _314
REMARK  116  A    between atoms: _317  and  _319
REMARK  117  A    between atoms: _319  and  _320
REMARK  118  A    between atoms: _322  and  _324
REMARK  119  A    between atoms: _324  and  _325
REMARK  120  A    between atoms: _324  and  _327
REMARK  121  A    between atoms: _327  and  _328
REMARK  122  A    between atoms: _330  and  _332
REMARK  123  A    between atoms: _332  and  _333
REMARK  124  A    between atoms: _332  and  _335
REMARK  125  A    between atoms: _335  and  _336
REMARK  126  A    between atoms: _339  and  _341
REMARK  127  A    between atoms: _341  and  _342
REMARK  128  A    between atoms: _341  and  _344
REMARK  129  A    between atoms: _344  and  _345
REMARK  130  A    between atoms: _348  and  _350
REMARK  131  A    between atoms: _350  and  _351
REMARK  132  A    between atoms: _350  and  _353
REMARK  133  A    between atoms: _353  and  _354
REMARK  134  A    between atoms: _358  and  _359
REMARK  135  A    between atoms: _365  and  _366
REMARK  136  A    between atoms: _371  and  _373
REMARK  137  A    between atoms: _373  and  _374
REMARK  138  A    between atoms: _373  and  _376
REMARK  139  A    between atoms: _376  and  _377
REMARK  140  A    between atoms: _380  and  _382
REMARK  141  A    between atoms: _382  and  _383
REMARK  142  A    between atoms: _382  and  _385
REMARK  143  A    between atoms: _385  and  _386
REMARK  144  A    between atoms: _389  and  _391
REMARK  145  A    between atoms: _391  and  _392
REMARK  146  A    between atoms: _391  and  _394
REMARK  147  A    between atoms: _397  and  _399
REMARK  148  A    between atoms: _399  and  _400
REMARK  149  A    between atoms: _399  and  _402
REMARK  150  A    between atoms: _402  and  _403
REMARK  151  A    between atoms: _413  and  _415
REMARK  152  A    between atoms: _415  and  _416
REMARK  153  A    between atoms: _415  and  _418
REMARK  154  A    between atoms: _418  and  _419
REMARK  155  A    between atoms: _424  and  _426
REMARK  156  A    between atoms: _426  and  _427
REMARK  157  A    between atoms: _426  and  _429
REMARK  158  A    between atoms: _429  and  _430
REMARK  159  A    between atoms: _430  and  _431
REMARK  160  A    between atoms: _431  and  _432
REMARK                            x       y       z     vdW  Elec       q    Type
REMARK                         _______ _______ _______ _____ _____    ______ ____
ROOT
ATOM      1  CA  LYS A   4      -4.661  17.412  18.189  0.00  0.00    +0.149 C 
ENDROOT
BRANCH   1   4
ATOM      2  C   GLY A   3      -4.014  15.872  16.424  0.00  0.00    +0.243 C 
ATOM      3  O   GLY A   3      -3.122  15.393  17.114  0.00  0.00    -0.273 OA
ATOM      4  N   LYS A   4      -4.798  16.852  16.853  0.00  0.00    -0.297 N 
ATOM      5  H   LYS A   4      -5.530  17.230  16.218  0.00  0.00    +0.150 HD
BRANCH   2   6
ATOM      6  CA  GLY A   3      -4.253  15.368  15.010  0.00  0.00    +0.176 C 
BRANCH   6   9
ATOM      7  C   PHE A   2      -6.314  14.154  15.398  0.00  0.00    +0.241 C 
ATOM      8  O   PHE A   2      -5.849  13.604  16.396  0.00  0.00    -0.273 OA
ATOM      9  N   GLY A   3      -5.626  15.029  14.671  0.00  0.00    -0.295 N 
ATOM     10  H   GLY A   3      -6.076  15.478  13.848  0.00  0.00    +0.150 HD
BRANCH   7  11
ATOM     11  CA  PHE A   2      -7.746  13.866  14.940  0.00  0.00    +0.153 C 
BRANCH  11  14
ATOM     12  C   ASP A   1      -8.680  16.057  15.412  0.00  0.00    +0.239 C 
ATOM     13  O   ASP A   1      -8.361  15.983  16.600  0.00  0.00    -0.274 OA
ATOM     14  N   PHE A   2      -8.426  15.090  14.536  0.00  0.00    -0.297 N 
ATOM     15  H   PHE A   2      -8.718  15.209  13.545  0.00  0.00    +0.150 HD
BRANCH  12  16
ATOM     16  CA  ASP A   1      -9.395  17.293  14.869  0.00  0.00    +0.156 C 
BRANCH  16  17
ATOM     17  N   ASP A   1      -9.657  18.276  15.922  0.00  0.00    -0.238 NA
ATOM     18  H   ASP A   1      -8.929  18.454  16.643  0.00  0.00    +0.142 HD
ENDBRANCH  16  17
BRANCH  16  19
ATOM     19  CB  ASP A   1      -8.556  17.908  13.734  0.00  0.00    +0.140 C 
BRANCH  19  20
ATOM     20  CG  ASP A   1      -7.201  18.441  14.209  0.00  0.00    +0.367 C 
ATOM     21  OD2 ASP A   1      -6.476  17.734  14.945  0.00  0.00    -0.246 OA
ATOM     22  OD1 ASP A   1      -6.843  19.575  13.829  0.00  0.00    -0.246 OA
ENDBRANCH  19  20
ENDBRANCH  16  19
ENDBRANCH  12  16
ENDBRANCH  11  14
BRANCH  11  23
ATOM     23  CB  PHE A   2      -7.740  12.850  13.786  0.00  0.00    +0.055 C 
BRANCH  23  24
ATOM     24  CG  PHE A   2      -7.117  11.527  14.151  0.00  0.00    -0.020 A 
ATOM     25  CD2 PHE A   2      -7.863  10.549  14.803  0.00  0.00    -0.004 A 
ATOM     26  CE2 PHE A   2      -7.277   9.347  15.203  0.00  0.00    -0.000 A 
ATOM     27  CZ  PHE A   2      -5.933   9.117  14.946  0.00  0.00    -0.000 A 
ATOM     28  CE1 PHE A   2      -5.182  10.086  14.292  0.00  0.00    -0.000 A 
ATOM     29  CD1 PHE A   2      -5.776  11.282  13.899  0.00  0.00    -0.004 A 
ENDBRANCH  23  24
ENDBRANCH  11  23
ENDBRANCH   7  11
ENDBRANCH   6   9
ENDBRANCH   2   6
ENDBRANCH   1   4
BRANCH   1  30
ATOM     30  C   LYS A   4      -5.124  16.412  19.249  0.00  0.00    +0.241 C 
ATOM     31  O   LYS A   4      -4.641  16.428  20.382  0.00  0.00    -0.273 OA
ATOM     32  N   ALA A   5      -6.050  15.537  18.866  0.00  0.00    -0.297 N 
ATOM     33  H   ALA A   5      -6.397  15.567  17.886  0.00  0.00    +0.150 HD
BRANCH  32  34
ATOM     34  CA  ALA A   5      -6.595  14.534  19.782  0.00  0.00    +0.149 C 
ATOM     35  CB  ALA A   5      -7.833  13.887  19.170  0.00  0.00    +0.031 C 
BRANCH  34  36
ATOM     36  C   ALA A   5      -5.595  13.456  20.194  0.00  0.00    +0.241 C 
ATOM     37  O   ALA A   5      -5.617  13.005  21.334  0.00  0.00    -0.273 OA
ATOM     38  N   VAL A   6      -4.725  13.038  19.278  0.00  0.00    -0.297 N 
ATOM     39  H   VAL A   6      -4.741  13.447  18.322  0.00  0.00    +0.150 HD
BRANCH  38  40
ATOM     40  CA  VAL A   6      -3.747  12.006  19.613  0.00  0.00    +0.149 C 
BRANCH  40  41
ATOM     41  C   VAL A   6      -2.594  12.567  20.423  0.00  0.00    +0.241 C 
ATOM     42  N   GLN A   7      -2.807  13.743  20.998  0.00  0.00    -0.298 N 
ATOM     43  H   GLN A   7      -3.714  14.226  20.838  0.00  0.00    +0.150 HD
ATOM     44  O   VAL A   6      -1.536  11.958  20.521  0.00  0.00    -0.273 OA
BRANCH  42  45
ATOM     45  CA  GLN A   7      -1.813  14.377  21.844  0.00  0.00    +0.137 C 
BRANCH  45  46
ATOM     46  C   GLN A   7      -2.432  14.479  23.238  0.00  0.00    +0.227 C 
ATOM     47  O   GLN A   7      -1.866  15.093  24.143  0.00  0.00    -0.286 OA
ENDBRANCH  45  46
BRANCH  45  48
ATOM     48  CB  GLN A   7      -1.467  15.771  21.313  0.00  0.00    +0.037 C 
BRANCH  48  49
ATOM     49  CG  GLN A   7      -0.525  15.760  20.116  0.00  0.00    +0.087 C 
BRANCH  49  50
ATOM     50  CD  GLN A   7      -0.228  17.156  19.579  0.00  0.00    +0.219 C 
ATOM     51  OE1 GLN A   7      -0.115  18.125  20.339  0.00  0.00    -0.275 OA
ATOM     52  NE2 GLN A   7      -0.080  17.259  18.263  0.00  0.00    -0.329 N 
ATOM     53 HE21 GLN A   7       0.140  18.181  17.835  0.00  0.00    +0.145 HD
ATOM     54 HE22 GLN A   7      -0.184  16.418  17.661  0.00  0.00    +0.145 HD
ENDBRANCH  49  50
ENDBRANCH  48  49
ENDBRANCH  45  48
ENDBRANCH  42  45
ENDBRANCH  40  41
BRANCH  40  55
ATOM     55  CB  VAL A   6      -3.184  11.288  18.362  0.00  0.00    +0.027 C 
ATOM     56  CG2 VAL A   6      -4.255  10.410  17.756  0.00  0.00    +0.002 C 
ATOM     57  CG1 VAL A   6      -2.670  12.297  17.356  0.00  0.00    +0.002 C 
ENDBRANCH  40  55
ENDBRANCH  38  40
ENDBRANCH  34  36
ENDBRANCH  32  34
ENDBRANCH   1  30
BRANCH   1  58
ATOM     58  CB  LYS A   4      -5.480  18.698  18.300  0.00  0.00    +0.029 C 
BRANCH  58  59
ATOM     59  CG  LYS A   4      -5.027  19.810  17.365  0.00  0.00    +0.000 C 
BRANCH  59  60
ATOM     60  CD  LYS A   4      -3.622  20.287  17.701  0.00  0.00    -0.024 C 
BRANCH  60  61
ATOM     61  CE  LYS A   4      -3.557  20.876  19.102  0.00  0.00    -0.086 C 
BRANCH  61  62
ATOM     62  NZ  LYS A   4      -2.182  21.319  19.458  0.00  0.00    +0.380 N 
ATOM     63  HZ1 LYS A   4      -2.184  21.713  20.420  0.00  0.00    -0.089 HD
ATOM     64  HZ2 LYS A   4      -1.535  20.505  19.417  0.00  0.00    -0.089 HD
ATOM     65  HZ3 LYS A   4      -1.868  22.047  18.785  0.00  0.00    -0.089 HD
ENDBRANCH  61  62
ENDBRANCH  60  61
ENDBRANCH  59  60
ENDBRANCH  58  59
ENDBRANCH   1  58
TORSDOF 27
REMARK  Name = ../refined-set-2016/3ibn/3ibn_pocket.pdb
REMARK  160 active torsions:
REMARK  status: ('A' for Active; 'I' for Inactive)
REMARK    1  A    between atoms: _1  and  _3
REMARK    2  A    between atoms: _3  and  _4
REMARK    3  A    between atoms: _3  and  _6
REMARK    4  A    between atoms: _6  and  _7
REMARK    5  A    between atoms: _17  and  _19
REMARK    6  A    between atoms: _19  and  _20
REMARK    7  A    between atoms: _19  and  _22
REMARK    8  A    between atoms: _22  and  _23
REMARK    9  A    between atoms: _28  and  _29
REMARK   10  A    between atoms: _31  and  _33
REMARK   11  A    between atoms: _33  and  _34
REMARK   12  A    between atoms: _33  and  _36
REMARK   13  A    between atoms: _36  and  _37
REMARK   14  A    between atoms: _40  and  _41
REMARK   15  A    between atoms: _46  and  _48
REMARK   16  A    between atoms: _48  and  _49
REMARK   17  A    between atoms: _48  and  _51
REMARK   18  A    between atoms: _51  and  _52
REMARK   19  A    between atoms: _57  and  _59
REMARK   20  A    between atoms: _59  and  _60
REMARK   21  A    between atoms: _63  and  _65
REMARK   22  A    between atoms: _65  and  _66
REMARK   23  A    between atoms: _65  and  _68
REMARK   24  A    between atoms: _68  and  _69
REMARK   25  A    between atoms: _74  and  _76
REMARK   26  A    between atoms: _76  and  _77
REMARK   27  A    between atoms: _76  and  _79
REMARK   28  A    between atoms: _79  and  _80
REMARK   29  A    between atoms: _83  and  _85
REMARK   30  A    between atoms: _85  and  _86
REMARK   31  A    between atoms: _85  and  _88
REMARK   32  A    between atoms: _88  and  _89
REMARK   33  A    between atoms: _89  and  _90
REMARK   34  A    between atoms: _95  and  _97
REMARK   35  A    between atoms: _97  and  _98
REMARK   36  A    between atoms: _97  and  _100
REMARK   37  A    between atoms: _100  and  _101
REMARK   38  A    between atoms: _107  and  _109
REMARK   39  A    between atoms: _120  and  _123
REMARK   40  A    between atoms: _123  and  _124
REMARK   41  A    between atoms: _132  and  _133
REMARK   42  A    between atoms: _141  and  _143
REMARK   43  A    between atoms: _143  and  _144
REMARK   44  A    between atoms: _143  and  _146
REMARK   45  A    between atoms: _146  and  _147
REMARK   46  A    between atoms: _147  and  _148
REMARK   47  A    between atoms: _151  and  _153
REMARK   48  A    between atoms: _153  and  _154
REMARK   49  A    between atoms: _153  and  _156
REMARK   50  A    between atoms: _156  and  _157
REMARK   51  A    between atoms: _162  and  _164
REMARK   52  A    between atoms: _164  and  _165
REMARK   53  A    between atoms: _164  and  _167
REMARK   54  A    between atoms: _167  and  _168
REMARK   55  A    between atoms: _168  and  _169
REMARK   56  A    between atoms: _172  and  _174
REMARK   57  A    between atoms: _174  and  _175
REMARK   58  A    between atoms: _174  and  _177
REMARK   59  A    between atoms: _177  and  _178
REMARK   60  A    between atoms: _181  and  _183
REMARK   61  A    between atoms: _183  and  _184
REMARK   62  A    between atoms: _183  and  _186
REMARK   63  A    between atoms: _186  and  _187
REMARK   64  A    between atoms: _188  and  ZN_441
REMARK   65  A    between atoms: _192  and  _194
REMARK   66  A    between atoms: _194  and  _195
REMARK   67  A    between atoms: _194  and  _197
REMARK   68  A    between atoms: _197  and  _198
REMARK   69  A    between atoms: _201  and  _203
REMARK   70  A    between atoms: _203  and  _204
REMARK   71  A    between atoms: _203  and  _206
REMARK   72  A    between atoms: _209  and  _211
REMARK   73  A    between atoms: _211  and  _212
REMARK   74  A    between atoms: _211  and  _214
REMARK   75  A    between atoms: _214  and  _215
REMARK   76  A    between atoms: _220  and  _222
REMARK   77  A    between atoms: _222  and  _223
REMARK   78  A    between atoms: _222  and  _225
REMARK   79  A    between atoms: _225  and  _226
REMARK   80  A    between atoms: _229  and  _231
REMARK   81  A    between atoms: _231  and  _232
REMARK   82  A    between atoms: _231  and  _234
REMARK   83  A    between atoms: _234  and  _235
REMARK   84  A    between atoms: _241  and  _243
REMARK   85  A    between atoms: _243  and  _244
REMARK   86  A    between atoms: _246  and  _248
REMARK   87  A    between atoms: _248  and  _249
REMARK   88  A    between atoms: _248  and  _251
REMARK   89  A    between atoms: _251  and  _252
REMARK   90  A    between atoms: _252  and  _253
REMARK   91  A    between atoms: _253  and  _254
REMARK   92  A    between atoms: _254  and  _255
REMARK   93  A    between atoms: _259  and  _261
REMARK   94  A    between atoms: _261  and  _262
REMARK   95  A    between atoms: _265  and  _267
REMARK   96  A    between atoms: _267  and  _268
REMARK   97  A    between atoms: _267  and  _270
REMARK   98  A    between atoms: _273  and  _275
REMARK   99  A    between atoms: _275  and  _276
REMARK  100  A    between atoms: _275  and  _278
REMARK  101  A    between atoms: _278  and  _279
REMARK  102  A    between atoms: _279  and  _280
REMARK  103  A    between atoms: _285  and  _287
REMARK  104  A    between atoms: _287  and  _288
REMARK  105  A    between atoms: _287  and  _290
REMARK  106  A    between atoms: _290  and  _291
REMARK  107  A    between atoms: _294  and  _296
REMARK  108  A    between atoms: _296  and  _297
REMARK  109  A    between atoms: _300  and  _302
REMARK  110  A    between atoms: _302  and  _303
REMARK  111  A    between atoms: _302  and  _305
REMARK  112  A    between atoms: _308  and  _310
REMARK  113  A    between atoms: _310  and  _311
REMARK  114  A    between atoms: _310  and  _313
REMARK  115  A    between atoms: _313  and  _314
REMARK  116  A    between atoms: _317  and  _319
REMARK  117  A    between atoms: _319  and  _320
REMARK  118  A    between atoms: _322  and  _324
REMARK  119  A    between atoms: _324  and  _325
REMARK  120  A    between atoms: _324  and  _327
REMARK  121  A    between atoms: _327  and  _328
REMARK  122  A    between atoms: _330  and  _332
REMARK  123  A    between atoms: _332  and  _333
REMARK  124  A    between atoms: _332  and  _335
REMARK  125  A    between atoms: _335  and  _336
REMARK  126  A    between atoms: _339  and  _341
REMARK  127  A    between atoms: _341  and  _342
REMARK  128  A    between atoms: _341  and  _344
REMARK  129  A    between atoms: _344  and  _345
REMARK  130  A    between atoms: _348  and  _350
REMARK  131  A    between atoms: _350  and  _351
REMARK  132  A    between atoms: _350  and  _353
REMARK  133  A    between atoms: _353  and  _354
REMARK  134  A    between atoms: _358  and  _359
REMARK  135  A    between atoms: _365  and  _366
REMARK  136  A    between atoms: _371  and  _373
REMARK  137  A    between atoms: _373  and  _374
REMARK  138  A    between atoms: _373  and  _376
REMARK  139  A    between atoms: _376  and  _377
REMARK  140  A    between atoms: _380  and  _382
REMARK  141  A    between atoms: _382  and  _383
REMARK  142  A    between atoms: _382  and  _385
REMARK  143  A    between atoms: _385  and  _386
REMARK  144  A    between atoms: _389  and  _391
REMARK  145  A    between atoms: _391  and  _392
REMARK  146  A    between atoms: _391  and  _394
REMARK  147  A    between atoms: _397  and  _399
REMARK  148  A    between atoms: _399  and  _400
REMARK  149  A    between atoms: _399  and  _402
REMARK  150  A    between atoms: _402  and  _403
REMARK  151  A    between atoms: _413  and  _415
REMARK  152  A    between atoms: _415  and  _416
REMARK  153  A    between atoms: _415  and  _418
REMARK  154  A    between atoms: _418  and  _419
REMARK  155  A    between atoms: _424  and  _426
REMARK  156  A    between atoms: _426  and  _427
REMARK  157  A    between atoms: _426  and  _429
REMARK  158  A    between atoms: _429  and  _430
REMARK  159  A    between atoms: _430  and  _431
REMARK  160  A    between atoms: _431  and  _432
REMARK                            x       y       z     vdW  Elec       q    Type
REMARK                         _______ _______ _______ _____ _____    ______ ____
ROOT
ATOM      1  C   ALA A   2     -12.115   5.108  20.721  0.00  0.00    +0.241 C 
ATOM      2  N   VAL A   3     -11.715   3.873  20.988  0.00  0.00    -0.297 N 
ATOM      3  H   VAL A   3     -11.331   3.640  21.926  0.00  0.00    +0.150 HD
ATOM      4  O   ALA A   2     -12.514   5.449  19.604  0.00  0.00    -0.273 OA
ENDROOT
BRANCH   1   5
ATOM      5  CA  ALA A   2     -12.010   6.117  21.855  0.00  0.00    +0.149 C 
ATOM      6  CB  ALA A   2     -13.392   6.675  22.191  0.00  0.00    +0.031 C 
BRANCH   5   9
ATOM      7  C   LEU A   1     -10.226   7.767  22.139  0.00  0.00    +0.238 C 
ATOM      8  O   LEU A   1     -10.064   7.518  23.340  0.00  0.00    -0.274 OA
ATOM      9  N   ALA A   2     -11.129   7.168  21.374  0.00  0.00    -0.297 N 
ATOM     10  H   ALA A   2     -11.211   7.465  20.381  0.00  0.00    +0.150 HD
BRANCH   7  11
ATOM     11  CA  LEU A   1      -9.378   8.796  21.410  0.00  0.00    +0.145 C 
BRANCH  11  12
ATOM     12  N   LEU A   1      -8.743   9.812  22.234  0.00  0.00    -0.238 NA
ATOM     13  H   LEU A   1      -8.214   9.533  23.085  0.00  0.00    +0.142 HD
ENDBRANCH  11  12
BRANCH  11  14
ATOM     14  CB  LEU A   1      -8.321   8.039  20.597  0.00  0.00    +0.026 C 
BRANCH  14  15
ATOM     15  CG  LEU A   1      -7.406   8.738  19.583  0.00  0.00    +0.002 C 
ATOM     16  CD2 LEU A   1      -6.550   7.665  18.896  0.00  0.00    +0.000 C 
ATOM     17  CD1 LEU A   1      -8.218   9.515  18.541  0.00  0.00    +0.000 C 
ENDBRANCH  14  15
ENDBRANCH  11  14
ENDBRANCH   7  11
ENDBRANCH   5   9
ENDBRANCH   1   5
BRANCH   2  18
ATOM     18  CA  VAL A   3     -11.815   2.849  19.968  0.00  0.00    +0.149 C 
BRANCH  18  19
ATOM     19  C   VAL A   3     -12.784   1.779  20.437  0.00  0.00    +0.241 C 
ATOM     20  O   VAL A   3     -12.691   1.295  21.569  0.00  0.00    -0.273 OA
ATOM     21  N   LEU A   4     -13.732   1.442  19.570  0.00  0.00    -0.298 N 
ATOM     22  H   LEU A   4     -13.769   1.927  18.651  0.00  0.00    +0.150 HD
BRANCH  21  23
ATOM     23  CA  LEU A   4     -14.721   0.416  19.866  0.00  0.00    +0.137 C 
BRANCH  23  24
ATOM     24  C   LEU A   4     -14.213  -0.859  19.205  0.00  0.00    +0.227 C 
ATOM     25  O   LEU A   4     -14.099  -0.932  17.980  0.00  0.00    -0.286 OA
ENDBRANCH  23  24
BRANCH  23  26
ATOM     26  CB  LEU A   4     -16.084   0.810  19.290  0.00  0.00    +0.028 C 
BRANCH  26  27
ATOM     27  CG  LEU A   4     -17.247  -0.153  19.550  0.00  0.00    +0.002 C 
ATOM     28  CD2 LEU A   4     -17.441  -0.344  21.047  0.00  0.00    +0.000 C 
ATOM     29  CD1 LEU A   4     -18.509   0.402  18.903  0.00  0.00    +0.000 C 
ENDBRANCH  26  27
ENDBRANCH  23  26
ENDBRANCH  21  23
ENDBRANCH  18  19
BRANCH  18  30
ATOM     30  CB  VAL A   3     -10.452   2.197  19.664  0.00  0.00    +0.027 C 
ATOM     31  CG2 VAL A   3      -9.442   3.262  19.248  0.00  0.00    +0.002 C 
ATOM     32  CG1 VAL A   3     -10.621   1.170  18.549  0.00  0.00    +0.002 C 
ENDBRANCH  18  30
ENDBRANCH   2  18
TORSDOF 13
REMARK  Name = ../refined-set-2016/3ibn/3ibn_pocket.pdb
REMARK  160 active torsions:
REMARK  status: ('A' for Active; 'I' for Inactive)
REMARK    1  A    between atoms: _1  and  _3
REMARK    2  A    between atoms: _3  and  _4
REMARK    3  A    between atoms: _3  and  _6
REMARK    4  A    between atoms: _6  and  _7
REMARK    5  A    between atoms: _17  and  _19
REMARK    6  A    between atoms: _19  and  _20
REMARK    7  A    between atoms: _19  and  _22
REMARK    8  A    between atoms: _22  and  _23
REMARK    9  A    between atoms: _28  and  _29
REMARK   10  A    between atoms: _31  and  _33
REMARK   11  A    between atoms: _33  and  _34
REMARK   12  A    between atoms: _33  and  _36
REMARK   13  A    between atoms: _36  and  _37
REMARK   14  A    between atoms: _40  and  _41
REMARK   15  A    between atoms: _46  and  _48
REMARK   16  A    between atoms: _48  and  _49
REMARK   17  A    between atoms: _48  and  _51
REMARK   18  A    between atoms: _51  and  _52
REMARK   19  A    between atoms: _57  and  _59
REMARK   20  A    between atoms: _59  and  _60
REMARK   21  A    between atoms: _63  and  _65
REMARK   22  A    between atoms: _65  and  _66
REMARK   23  A    between atoms: _65  and  _68
REMARK   24  A    between atoms: _68  and  _69
REMARK   25  A    between atoms: _74  and  _76
REMARK   26  A    between atoms: _76  and  _77
REMARK   27  A    between atoms: _76  and  _79
REMARK   28  A    between atoms: _79  and  _80
REMARK   29  A    between atoms: _83  and  _85
REMARK   30  A    between atoms: _85  and  _86
REMARK   31  A    between atoms: _85  and  _88
REMARK   32  A    between atoms: _88  and  _89
REMARK   33  A    between atoms: _89  and  _90
REMARK   34  A    between atoms: _95  and  _97
REMARK   35  A    between atoms: _97  and  _98
REMARK   36  A    between atoms: _97  and  _100
REMARK   37  A    between atoms: _100  and  _101
REMARK   38  A    between atoms: _107  and  _109
REMARK   39  A    between atoms: _120  and  _123
REMARK   40  A    between atoms: _123  and  _124
REMARK   41  A    between atoms: _132  and  _133
REMARK   42  A    between atoms: _141  and  _143
REMARK   43  A    between atoms: _143  and  _144
REMARK   44  A    between atoms: _143  and  _146
REMARK   45  A    between atoms: _146  and  _147
REMARK   46  A    between atoms: _147  and  _148
REMARK   47  A    between atoms: _151  and  _153
REMARK   48  A    between atoms: _153  and  _154
REMARK   49  A    between atoms: _153  and  _156
REMARK   50  A    between atoms: _156  and  _157
REMARK   51  A    between atoms: _162  and  _164
REMARK   52  A    between atoms: _164  and  _165
REMARK   53  A    between atoms: _164  and  _167
REMARK   54  A    between atoms: _167  and  _168
REMARK   55  A    between atoms: _168  and  _169
REMARK   56  A    between atoms: _172  and  _174
REMARK   57  A    between atoms: _174  and  _175
REMARK   58  A    between atoms: _174  and  _177
REMARK   59  A    between atoms: _177  and  _178
REMARK   60  A    between atoms: _181  and  _183
REMARK   61  A    between atoms: _183  and  _184
REMARK   62  A    between atoms: _183  and  _186
REMARK   63  A    between atoms: _186  and  _187
REMARK   64  A    between atoms: _188  and  ZN_441
REMARK   65  A    between atoms: _192  and  _194
REMARK   66  A    between atoms: _194  and  _195
REMARK   67  A    between atoms: _194  and  _197
REMARK   68  A    between atoms: _197  and  _198
REMARK   69  A    between atoms: _201  and  _203
REMARK   70  A    between atoms: _203  and  _204
REMARK   71  A    between atoms: _203  and  _206
REMARK   72  A    between atoms: _209  and  _211
REMARK   73  A    between atoms: _211  and  _212
REMARK   74  A    between atoms: _211  and  _214
REMARK   75  A    between atoms: _214  and  _215
REMARK   76  A    between atoms: _220  and  _222
REMARK   77  A    between atoms: _222  and  _223
REMARK   78  A    between atoms: _222  and  _225
REMARK   79  A    between atoms: _225  and  _226
REMARK   80  A    between atoms: _229  and  _231
REMARK   81  A    between atoms: _231  and  _232
REMARK   82  A    between atoms: _231  and  _234
REMARK   83  A    between atoms: _234  and  _235
REMARK   84  A    between atoms: _241  and  _243
REMARK   85  A    between atoms: _243  and  _244
REMARK   86  A    between atoms: _246  and  _248
REMARK   87  A    between atoms: _248  and  _249
REMARK   88  A    between atoms: _248  and  _251
REMARK   89  A    between atoms: _251  and  _252
REMARK   90  A    between atoms: _252  and  _253
REMARK   91  A    between atoms: _253  and  _254
REMARK   92  A    between atoms: _254  and  _255
REMARK   93  A    between atoms: _259  and  _261
REMARK   94  A    between atoms: _261  and  _262
REMARK   95  A    between atoms: _265  and  _267
REMARK   96  A    between atoms: _267  and  _268
REMARK   97  A    between atoms: _267  and  _270
REMARK   98  A    between atoms: _273  and  _275
REMARK   99  A    between atoms: _275  and  _276
REMARK  100  A    between atoms: _275  and  _278
REMARK  101  A    between atoms: _278  and  _279
REMARK  102  A    between atoms: _279  and  _280
REMARK  103  A    between atoms: _285  and  _287
REMARK  104  A    between atoms: _287  and  _288
REMARK  105  A    between atoms: _287  and  _290
REMARK  106  A    between atoms: _290  and  _291
REMARK  107  A    between atoms: _294  and  _296
REMARK  108  A    between atoms: _296  and  _297
REMARK  109  A    between atoms: _300  and  _302
REMARK  110  A    between atoms: _302  and  _303
REMARK  111  A    between atoms: _302  and  _305
REMARK  112  A    between atoms: _308  and  _310
REMARK  113  A    between atoms: _310  and  _311
REMARK  114  A    between atoms: _310  and  _313
REMARK  115  A    between atoms: _313  and  _314
REMARK  116  A    between atoms: _317  and  _319
REMARK  117  A    between atoms: _319  and  _320
REMARK  118  A    between atoms: _322  and  _324
REMARK  119  A    between atoms: _324  and  _325
REMARK  120  A    between atoms: _324  and  _327
REMARK  121  A    between atoms: _327  and  _328
REMARK  122  A    between atoms: _330  and  _332
REMARK  123  A    between atoms: _332  and  _333
REMARK  124  A    between atoms: _332  and  _335
REMARK  125  A    between atoms: _335  and  _336
REMARK  126  A    between atoms: _339  and  _341
REMARK  127  A    between atoms: _341  and  _342
REMARK  128  A    between atoms: _341  and  _344
REMARK  129  A    between atoms: _344  and  _345
REMARK  130  A    between atoms: _348  and  _350
REMARK  131  A    between atoms: _350  and  _351
REMARK  132  A    between atoms: _350  and  _353
REMARK  133  A    between atoms: _353  and  _354
REMARK  134  A    between atoms: _358  and  _359
REMARK  135  A    between atoms: _365  and  _366
REMARK  136  A    between atoms: _371  and  _373
REMARK  137  A    between atoms: _373  and  _374
REMARK  138  A    between atoms: _373  and  _376
REMARK  139  A    between atoms: _376  and  _377
REMARK  140  A    between atoms: _380  and  _382
REMARK  141  A    between atoms: _382  and  _383
REMARK  142  A    between atoms: _382  and  _385
REMARK  143  A    between atoms: _385  and  _386
REMARK  144  A    between atoms: _389  and  _391
REMARK  145  A    between atoms: _391  and  _392
REMARK  146  A    between atoms: _391  and  _394
REMARK  147  A    between atoms: _397  and  _399
REMARK  148  A    between atoms: _399  and  _400
REMARK  149  A    between atoms: _399  and  _402
REMARK  150  A    between atoms: _402  and  _403
REMARK  151  A    between atoms: _413  and  _415
REMARK  152  A    between atoms: _415  and  _416
REMARK  153  A    between atoms: _415  and  _418
REMARK  154  A    between atoms: _418  and  _419
REMARK  155  A    between atoms: _424  and  _426
REMARK  156  A    between atoms: _426  and  _427
REMARK  157  A    between atoms: _426  and  _429
REMARK  158  A    between atoms: _429  and  _430
REMARK  159  A    between atoms: _430  and  _431
REMARK  160  A    between atoms: _431  and  _432
REMARK                            x       y       z     vdW  Elec       q    Type
REMARK                         _______ _______ _______ _____ _____    ______ ____
ROOT
ATOM      1  CA  THR A   5       0.158  -0.032  16.003  0.00  0.00    +0.176 C 
ENDROOT
BRANCH   1   2
ATOM      2  C   THR A   5       1.005   1.207  16.258  0.00  0.00    +0.246 C 
ATOM      3  O   THR A   5       0.582   2.131  16.952  0.00  0.00    -0.273 OA
ATOM      4  N   PRO A   6       2.230   1.231  15.727  0.00  0.00    -0.272 N 
ATOM      5  CA  PRO A   6       3.033   2.429  15.960  0.00  0.00    +0.152 C 
ATOM      6  CB  PRO A   6       4.278   2.162  15.126  0.00  0.00    +0.031 C 
ATOM      7  CG  PRO A   6       4.431   0.658  15.256  0.00  0.00    +0.024 C 
ATOM      8  CD  PRO A   6       3.011   0.177  15.059  0.00  0.00    +0.094 C 
BRANCH   5   9
ATOM      9  C   PRO A   6       2.215   3.592  15.408  0.00  0.00    +0.244 C 
ATOM     10  N   PRO A   7       2.344   4.793  15.988  0.00  0.00    -0.272 N 
ATOM     11  CA  PRO A   7       3.193   5.238  17.098  0.00  0.00    +0.152 C 
ATOM     12  CB  PRO A   7       3.149   6.761  16.968  0.00  0.00    +0.031 C 
ATOM     13  CG  PRO A   7       1.755   7.000  16.472  0.00  0.00    +0.024 C 
ATOM     14  CD  PRO A   7       1.602   5.931  15.414  0.00  0.00    +0.094 C 
ATOM     15  O   PRO A   6       1.467   3.415  14.448  0.00  0.00    -0.273 OA
BRANCH  11  16
ATOM     16  C   PRO A   7       2.793   4.763  18.504  0.00  0.00    +0.241 C 
ATOM     17  O   PRO A   7       3.357   5.228  19.493  0.00  0.00    -0.273 OA
ATOM     18  N   LEU A   8       1.827   3.852  18.588  0.00  0.00    -0.297 N 
ATOM     19  H   LEU A   8       1.366   3.524  17.715  0.00  0.00    +0.150 HD
BRANCH  18  20
ATOM     20  CA  LEU A   8       1.393   3.296  19.873  0.00  0.00    +0.149 C 
BRANCH  20  21
ATOM     21  C   LEU A   8       1.064   4.354  20.928  0.00  0.00    +0.241 C 
ATOM     22  O   LEU A   8       1.309   4.153  22.123  0.00  0.00    -0.273 OA
ATOM     23  N   LEU A   9       0.500   5.470  20.484  0.00  0.00    -0.298 N 
ATOM     24  H   LEU A   9       0.298   5.561  19.468  0.00  0.00    +0.150 HD
BRANCH  23  25
ATOM     25  CA  LEU A   9       0.154   6.574  21.372  0.00  0.00    +0.137 C 
BRANCH  25  26
ATOM     26  C   LEU A   9      -0.856   6.171  22.455  0.00  0.00    +0.227 C 
ATOM     27  O   LEU A   9      -1.852   5.492  22.185  0.00  0.00    -0.286 OA
ENDBRANCH  25  26
BRANCH  25  28
ATOM     28  CB  LEU A   9      -0.360   7.757  20.530  0.00  0.00    +0.028 C 
BRANCH  28  29
ATOM     29  CG  LEU A   9       0.656   8.171  19.448  0.00  0.00    +0.002 C 
ATOM     30  CD2 LEU A   9       1.948   8.633  20.120  0.00  0.00    +0.000 C 
ATOM     31  CD1 LEU A   9       0.084   9.271  18.549  0.00  0.00    +0.000 C 
ENDBRANCH  28  29
ENDBRANCH  25  28
ENDBRANCH  23  25
ENDBRANCH  20  21
BRANCH  20  32
ATOM     32  CB  LEU A   8       2.485   2.376  20.414  0.00  0.00    +0.029 C 
BRANCH  32  33
ATOM     33  CG  LEU A   8       2.944   1.271  19.454  0.00  0.00    +0.002 C 
ATOM     34  CD2 LEU A   8       4.218   0.615  19.993  0.00  0.00    +0.000 C 
ATOM     35  CD1 LEU A   8       1.828   0.242  19.285  0.00  0.00    +0.000 C 
ENDBRANCH  32  33
ENDBRANCH  20  32
ENDBRANCH  18  20
ENDBRANCH  11  16
ENDBRANCH   5   9
ENDBRANCH   1   2
BRANCH   1  38
ATOM     36  C   THR A   4      -0.984  -1.170  17.814  0.00  0.00    +0.243 C 
ATOM     37  O   THR A   4      -0.291  -2.180  17.676  0.00  0.00    -0.273 OA
ATOM     38  N   THR A   5      -0.860  -0.097  17.041  0.00  0.00    -0.295 N 
ATOM     39  H   THR A   5      -1.501   0.710  17.180  0.00  0.00    +0.150 HD
BRANCH  36  40
ATOM     40  CA  THR A   4      -2.052  -1.104  18.899  0.00  0.00    +0.176 C 
BRANCH  40  43
ATOM     41  C   LEU A   3      -2.299   1.148  19.696  0.00  0.00    +0.241 C 
ATOM     42  O   LEU A   3      -1.305   1.007  20.411  0.00  0.00    -0.273 OA
ATOM     43  N   THR A   4      -2.753   0.172  18.921  0.00  0.00    -0.295 N 
ATOM     44  H   THR A   4      -3.600   0.317  18.336  0.00  0.00    +0.150 HD
BRANCH  41  45
ATOM     45  CA  LEU A   3      -3.064   2.471  19.700  0.00  0.00    +0.149 C 
BRANCH  45  48
ATOM     46  C   SER A   2      -3.542   2.371  22.075  0.00  0.00    +0.243 C 
ATOM     47  O   SER A   2      -4.365   1.469  21.935  0.00  0.00    -0.273 OA
ATOM     48  N   LEU A   3      -2.891   2.934  21.060  0.00  0.00    -0.297 N 
ATOM     49  H   LEU A   3      -2.243   3.725  21.249  0.00  0.00    +0.150 HD
BRANCH  46  50
ATOM     50  CA  SER A   2      -3.185   2.914  23.445  0.00  0.00    +0.178 C 
BRANCH  50  53
ATOM     51  C   GLY A   1      -4.334   2.888  25.598  0.00  0.00    +0.240 C 
ATOM     52  O   GLY A   1      -4.319   4.116  25.687  0.00  0.00    -0.274 OA
ATOM     53  N   SER A   2      -3.846   2.228  24.551  0.00  0.00    -0.295 N 
ATOM     54  H   SER A   2      -3.938   1.193  24.520  0.00  0.00    +0.150 HD
BRANCH  51  55
ATOM     55  CA  GLY A   1      -4.950   2.040  26.695  0.00  0.00    +0.169 C 
BRANCH  55  56
ATOM     56  N   GLY A   1      -6.058   2.645  27.414  0.00  0.00    -0.236 NA
ATOM     57  H   GLY A   1      -6.752   3.223  26.898  0.00  0.00    +0.142 HD
ENDBRANCH  55  56
ENDBRANCH  51  55
ENDBRANCH  50  53
BRANCH  50  58
ATOM     58  CB  SER A   2      -1.679   2.762  23.584  0.00  0.00    +0.166 C 
BRANCH  58  59
ATOM     59  OG  SER A   2      -1.323   1.426  23.257  0.00  0.00    -0.380 OA
ATOM     60  H   SER A   2      -1.596   1.231  22.326  0.00  0.00    +0.211 HD
ENDBRANCH  58  59
ENDBRANCH  50  58
ENDBRANCH  46  50
ENDBRANCH  45  48
BRANCH  45  61
ATOM     61  CB  LEU A   3      -2.421   3.456  18.729  0.00  0.00    +0.029 C 
BRANCH  61  62
ATOM     62  CG  LEU A   3      -3.037   4.855  18.755  0.00  0.00    +0.002 C 
ATOM     63  CD2 LEU A   3      -4.461   4.764  18.237  0.00  0.00    +0.000 C 
ATOM     64  CD1 LEU A   3      -2.203   5.819  17.912  0.00  0.00    +0.000 C 
ENDBRANCH  61  62
ENDBRANCH  45  61
ENDBRANCH  41  45
ENDBRANCH  40  43
BRANCH  40  65
ATOM     65  CB  THR A   4      -3.013  -2.266  18.707  0.00  0.00    +0.137 C 
ATOM     66  CG2 THR A   4      -4.015  -2.321  19.863  0.00  0.00    +0.034 C 
BRANCH  65  67
ATOM     67  OG1 THR A   4      -3.703  -2.097  17.468  0.00  0.00    -0.382 OA
ATOM     68  HG1 THR A   4      -4.331  -2.851  17.336  0.00  0.00    +0.210 HD
ENDBRANCH  65  67
ENDBRANCH  40  65
ENDBRANCH  36  40
ENDBRANCH   1  38
BRANCH   1  69
ATOM     69  CB  THR A   5      -0.454   0.103  14.592  0.00  0.00    +0.137 C 
ATOM     70  CG2 THR A   5      -1.508  -0.970  14.351  0.00  0.00    +0.034 C 
BRANCH  69  71
ATOM     71  OG1 THR A   5      -1.059   1.393  14.462  0.00  0.00    -0.382 OA
ATOM     72  HG1 THR A   5      -0.372   2.093  14.595  0.00  0.00    +0.210 HD
ENDBRANCH  69  71
ENDBRANCH   1  69
TORSDOF 28
REMARK  Name = ../refined-set-2016/3ibn/3ibn_pocket.pdb
REMARK  160 active torsions:
REMARK  status: ('A' for Active; 'I' for Inactive)
REMARK    1  A    between atoms: _1  and  _3
REMARK    2  A    between atoms: _3  and  _4
REMARK    3  A    between atoms: _3  and  _6
REMARK    4  A    between atoms: _6  and  _7
REMARK    5  A    between atoms: _17  and  _19
REMARK    6  A    between atoms: _19  and  _20
REMARK    7  A    between atoms: _19  and  _22
REMARK    8  A    between atoms: _22  and  _23
REMARK    9  A    between atoms: _28  and  _29
REMARK   10  A    between atoms: _31  and  _33
REMARK   11  A    between atoms: _33  and  _34
REMARK   12  A    between atoms: _33  and  _36
REMARK   13  A    between atoms: _36  and  _37
REMARK   14  A    between atoms: _40  and  _41
REMARK   15  A    between atoms: _46  and  _48
REMARK   16  A    between atoms: _48  and  _49
REMARK   17  A    between atoms: _48  and  _51
REMARK   18  A    between atoms: _51  and  _52
REMARK   19  A    between atoms: _57  and  _59
REMARK   20  A    between atoms: _59  and  _60
REMARK   21  A    between atoms: _63  and  _65
REMARK   22  A    between atoms: _65  and  _66
REMARK   23  A    between atoms: _65  and  _68
REMARK   24  A    between atoms: _68  and  _69
REMARK   25  A    between atoms: _74  and  _76
REMARK   26  A    between atoms: _76  and  _77
REMARK   27  A    between atoms: _76  and  _79
REMARK   28  A    between atoms: _79  and  _80
REMARK   29  A    between atoms: _83  and  _85
REMARK   30  A    between atoms: _85  and  _86
REMARK   31  A    between atoms: _85  and  _88
REMARK   32  A    between atoms: _88  and  _89
REMARK   33  A    between atoms: _89  and  _90
REMARK   34  A    between atoms: _95  and  _97
REMARK   35  A    between atoms: _97  and  _98
REMARK   36  A    between atoms: _97  and  _100
REMARK   37  A    between atoms: _100  and  _101
REMARK   38  A    between atoms: _107  and  _109
REMARK   39  A    between atoms: _120  and  _123
REMARK   40  A    between atoms: _123  and  _124
REMARK   41  A    between atoms: _132  and  _133
REMARK   42  A    between atoms: _141  and  _143
REMARK   43  A    between atoms: _143  and  _144
REMARK   44  A    between atoms: _143  and  _146
REMARK   45  A    between atoms: _146  and  _147
REMARK   46  A    between atoms: _147  and  _148
REMARK   47  A    between atoms: _151  and  _153
REMARK   48  A    between atoms: _153  and  _154
REMARK   49  A    between atoms: _153  and  _156
REMARK   50  A    between atoms: _156  and  _157
REMARK   51  A    between atoms: _162  and  _164
REMARK   52  A    between atoms: _164  and  _165
REMARK   53  A    between atoms: _164  and  _167
REMARK   54  A    between atoms: _167  and  _168
REMARK   55  A    between atoms: _168  and  _169
REMARK   56  A    between atoms: _172  and  _174
REMARK   57  A    between atoms: _174  and  _175
REMARK   58  A    between atoms: _174  and  _177
REMARK   59  A    between atoms: _177  and  _178
REMARK   60  A    between atoms: _181  and  _183
REMARK   61  A    between atoms: _183  and  _184
REMARK   62  A    between atoms: _183  and  _186
REMARK   63  A    between atoms: _186  and  _187
REMARK   64  A    between atoms: _188  and  ZN_441
REMARK   65  A    between atoms: _192  and  _194
REMARK   66  A    between atoms: _194  and  _195
REMARK   67  A    between atoms: _194  and  _197
REMARK   68  A    between atoms: _197  and  _198
REMARK   69  A    between atoms: _201  and  _203
REMARK   70  A    between atoms: _203  and  _204
REMARK   71  A    between atoms: _203  and  _206
REMARK   72  A    between atoms: _209  and  _211
REMARK   73  A    between atoms: _211  and  _212
REMARK   74  A    between atoms: _211  and  _214
REMARK   75  A    between atoms: _214  and  _215
REMARK   76  A    between atoms: _220  and  _222
REMARK   77  A    between atoms: _222  and  _223
REMARK   78  A    between atoms: _222  and  _225
REMARK   79  A    between atoms: _225  and  _226
REMARK   80  A    between atoms: _229  and  _231
REMARK   81  A    between atoms: _231  and  _232
REMARK   82  A    between atoms: _231  and  _234
REMARK   83  A    between atoms: _234  and  _235
REMARK   84  A    between atoms: _241  and  _243
REMARK   85  A    between atoms: _243  and  _244
REMARK   86  A    between atoms: _246  and  _248
REMARK   87  A    between atoms: _248  and  _249
REMARK   88  A    between atoms: _248  and  _251
REMARK   89  A    between atoms: _251  and  _252
REMARK   90  A    between atoms: _252  and  _253
REMARK   91  A    between atoms: _253  and  _254
REMARK   92  A    between atoms: _254  and  _255
REMARK   93  A    between atoms: _259  and  _261
REMARK   94  A    between atoms: _261  and  _262
REMARK   95  A    between atoms: _265  and  _267
REMARK   96  A    between atoms: _267  and  _268
REMARK   97  A    between atoms: _267  and  _270
REMARK   98  A    between atoms: _273  and  _275
REMARK   99  A    between atoms: _275  and  _276
REMARK  100  A    between atoms: _275  and  _278
REMARK  101  A    between atoms: _278  and  _279
REMARK  102  A    between atoms: _279  and  _280
REMARK  103  A    between atoms: _285  and  _287
REMARK  104  A    between atoms: _287  and  _288
REMARK  105  A    between atoms: _287  and  _290
REMARK  106  A    between atoms: _290  and  _291
REMARK  107  A    between atoms: _294  and  _296
REMARK  108  A    between atoms: _296  and  _297
REMARK  109  A    between atoms: _300  and  _302
REMARK  110  A    between atoms: _302  and  _303
REMARK  111  A    between atoms: _302  and  _305
REMARK  112  A    between atoms: _308  and  _310
REMARK  113  A    between atoms: _310  and  _311
REMARK  114  A    between atoms: _310  and  _313
REMARK  115  A    between atoms: _313  and  _314
REMARK  116  A    between atoms: _317  and  _319
REMARK  117  A    between atoms: _319  and  _320
REMARK  118  A    between atoms: _322  and  _324
REMARK  119  A    between atoms: _324  and  _325
REMARK  120  A    between atoms: _324  and  _327
REMARK  121  A    between atoms: _327  and  _328
REMARK  122  A    between atoms: _330  and  _332
REMARK  123  A    between atoms: _332  and  _333
REMARK  124  A    between atoms: _332  and  _335
REMARK  125  A    between atoms: _335  and  _336
REMARK  126  A    between atoms: _339  and  _341
REMARK  127  A    between atoms: _341  and  _342
REMARK  128  A    between atoms: _341  and  _344
REMARK  129  A    between atoms: _344  and  _345
REMARK  130  A    between atoms: _348  and  _350
REMARK  131  A    between atoms: _350  and  _351
REMARK  132  A    between atoms: _350  and  _353
REMARK  133  A    between atoms: _353  and  _354
REMARK  134  A    between atoms: _358  and  _359
REMARK  135  A    between atoms: _365  and  _366
REMARK  136  A    between atoms: _371  and  _373
REMARK  137  A    between atoms: _373  and  _374
REMARK  138  A    between atoms: _373  and  _376
REMARK  139  A    between atoms: _376  and  _377
REMARK  140  A    between atoms: _380  and  _382
REMARK  141  A    between atoms: _382  and  _383
REMARK  142  A    between atoms: _382  and  _385
REMARK  143  A    between atoms: _385  and  _386
REMARK  144  A    between atoms: _389  and  _391
REMARK  145  A    between atoms: _391  and  _392
REMARK  146  A    between atoms: _391  and  _394
REMARK  147  A    between atoms: _397  and  _399
REMARK  148  A    between atoms: _399  and  _400
REMARK  149  A    between atoms: _399  and  _402
REMARK  150  A    between atoms: _402  and  _403
REMARK  151  A    between atoms: _413  and  _415
REMARK  152  A    between atoms: _415  and  _416
REMARK  153  A    between atoms: _415  and  _418
REMARK  154  A    between atoms: _418  and  _419
REMARK  155  A    between atoms: _424  and  _426
REMARK  156  A    between atoms: _426  and  _427
REMARK  157  A    between atoms: _426  and  _429
REMARK  158  A    between atoms: _429  and  _430
REMARK  159  A    between atoms: _430  and  _431
REMARK  160  A    between atoms: _431  and  _432
REMARK                            x       y       z     vdW  Elec       q    Type
REMARK                         _______ _______ _______ _____ _____    ______ ____
ROOT
ATOM      1  CA  VAL A   1      -7.153   5.600  23.988  0.00  0.00    +0.133 C 
ENDROOT
BRANCH   1   2
ATOM      2  CB  VAL A   1      -6.911   4.412  23.022  0.00  0.00    +0.023 C 
ATOM      3  CG2 VAL A   1      -8.233   3.685  22.745  0.00  0.00    +0.002 C 
ATOM      4  CG1 VAL A   1      -6.257   4.906  21.727  0.00  0.00    +0.002 C 
ENDBRANCH   1   2
BRANCH   1   5
ATOM      5  N   VAL A   1      -5.922   6.360  24.155  0.00  0.00    -0.239 NA
ATOM      6  H   VAL A   1      -5.051   5.874  24.449  0.00  0.00    +0.142 HD
ENDBRANCH   1   5
BRANCH   1   7
ATOM      7  C   VAL A   1      -7.940   5.027  25.153  0.00  0.00    +0.224 C 
ATOM      8  O   VAL A   1      -7.394   4.381  26.046  0.00  0.00    -0.287 OA
ENDBRANCH   1   7
TORSDOF 3
REMARK  Name = ../refined-set-2016/3ibn/3ibn_pocket.pdb
REMARK  160 active torsions:
REMARK  status: ('A' for Active; 'I' for Inactive)
REMARK    1  A    between atoms: _1  and  _3
REMARK    2  A    between atoms: _3  and  _4
REMARK    3  A    between atoms: _3  and  _6
REMARK    4  A    between atoms: _6  and  _7
REMARK    5  A    between atoms: _17  and  _19
REMARK    6  A    between atoms: _19  and  _20
REMARK    7  A    between atoms: _19  and  _22
REMARK    8  A    between atoms: _22  and  _23
REMARK    9  A    between atoms: _28  and  _29
REMARK   10  A    between atoms: _31  and  _33
REMARK   11  A    between atoms: _33  and  _34
REMARK   12  A    between atoms: _33  and  _36
REMARK   13  A    between atoms: _36  and  _37
REMARK   14  A    between atoms: _40  and  _41
REMARK   15  A    between atoms: _46  and  _48
REMARK   16  A    between atoms: _48  and  _49
REMARK   17  A    between atoms: _48  and  _51
REMARK   18  A    between atoms: _51  and  _52
REMARK   19  A    between atoms: _57  and  _59
REMARK   20  A    between atoms: _59  and  _60
REMARK   21  A    between atoms: _63  and  _65
REMARK   22  A    between atoms: _65  and  _66
REMARK   23  A    between atoms: _65  and  _68
REMARK   24  A    between atoms: _68  and  _69
REMARK   25  A    between atoms: _74  and  _76
REMARK   26  A    between atoms: _76  and  _77
REMARK   27  A    between atoms: _76  and  _79
REMARK   28  A    between atoms: _79  and  _80
REMARK   29  A    between atoms: _83  and  _85
REMARK   30  A    between atoms: _85  and  _86
REMARK   31  A    between atoms: _85  and  _88
REMARK   32  A    between atoms: _88  and  _89
REMARK   33  A    between atoms: _89  and  _90
REMARK   34  A    between atoms: _95  and  _97
REMARK   35  A    between atoms: _97  and  _98
REMARK   36  A    between atoms: _97  and  _100
REMARK   37  A    between atoms: _100  and  _101
REMARK   38  A    between atoms: _107  and  _109
REMARK   39  A    between atoms: _120  and  _123
REMARK   40  A    between atoms: _123  and  _124
REMARK   41  A    between atoms: _132  and  _133
REMARK   42  A    between atoms: _141  and  _143
REMARK   43  A    between atoms: _143  and  _144
REMARK   44  A    between atoms: _143  and  _146
REMARK   45  A    between atoms: _146  and  _147
REMARK   46  A    between atoms: _147  and  _148
REMARK   47  A    between atoms: _151  and  _153
REMARK   48  A    between atoms: _153  and  _154
REMARK   49  A    between atoms: _153  and  _156
REMARK   50  A    between atoms: _156  and  _157
REMARK   51  A    between atoms: _162  and  _164
REMARK   52  A    between atoms: _164  and  _165
REMARK   53  A    between atoms: _164  and  _167
REMARK   54  A    between atoms: _167  and  _168
REMARK   55  A    between atoms: _168  and  _169
REMARK   56  A    between atoms: _172  and  _174
REMARK   57  A    between atoms: _174  and  _175
REMARK   58  A    between atoms: _174  and  _177
REMARK   59  A    between atoms: _177  and  _178
REMARK   60  A    between atoms: _181  and  _183
REMARK   61  A    between atoms: _183  and  _184
REMARK   62  A    between atoms: _183  and  _186
REMARK   63  A    between atoms: _186  and  _187
REMARK   64  A    between atoms: _188  and  ZN_441
REMARK   65  A    between atoms: _192  and  _194
REMARK   66  A    between atoms: _194  and  _195
REMARK   67  A    between atoms: _194  and  _197
REMARK   68  A    between atoms: _197  and  _198
REMARK   69  A    between atoms: _201  and  _203
REMARK   70  A    between atoms: _203  and  _204
REMARK   71  A    between atoms: _203  and  _206
REMARK   72  A    between atoms: _209  and  _211
REMARK   73  A    between atoms: _211  and  _212
REMARK   74  A    between atoms: _211  and  _214
REMARK   75  A    between atoms: _214  and  _215
REMARK   76  A    between atoms: _220  and  _222
REMARK   77  A    between atoms: _222  and  _223
REMARK   78  A    between atoms: _222  and  _225
REMARK   79  A    between atoms: _225  and  _226
REMARK   80  A    between atoms: _229  and  _231
REMARK   81  A    between atoms: _231  and  _232
REMARK   82  A    between atoms: _231  and  _234
REMARK   83  A    between atoms: _234  and  _235
REMARK   84  A    between atoms: _241  and  _243
REMARK   85  A    between atoms: _243  and  _244
REMARK   86  A    between atoms: _246  and  _248
REMARK   87  A    between atoms: _248  and  _249
REMARK   88  A    between atoms: _248  and  _251
REMARK   89  A    between atoms: _251  and  _252
REMARK   90  A    between atoms: _252  and  _253
REMARK   91  A    between atoms: _253  and  _254
REMARK   92  A    between atoms: _254  and  _255
REMARK   93  A    between atoms: _259  and  _261
REMARK   94  A    between atoms: _261  and  _262
REMARK   95  A    between atoms: _265  and  _267
REMARK   96  A    between atoms: _267  and  _268
REMARK   97  A    between atoms: _267  and  _270
REMARK   98  A    between atoms: _273  and  _275
REMARK   99  A    between atoms: _275  and  _276
REMARK  100  A    between atoms: _275  and  _278
REMARK  101  A    between atoms: _278  and  _279
REMARK  102  A    between atoms: _279  and  _280
REMARK  103  A    between atoms: _285  and  _287
REMARK  104  A    between atoms: _287  and  _288
REMARK  105  A    between atoms: _287  and  _290
REMARK  106  A    between atoms: _290  and  _291
REMARK  107  A    between atoms: _294  and  _296
REMARK  108  A    between atoms: _296  and  _297
REMARK  109  A    between atoms: _300  and  _302
REMARK  110  A    between atoms: _302  and  _303
REMARK  111  A    between atoms: _302  and  _305
REMARK  112  A    between atoms: _308  and  _310
REMARK  113  A    between atoms: _310  and  _311
REMARK  114  A    between atoms: _310  and  _313
REMARK  115  A    between atoms: _313  and  _314
REMARK  116  A    between atoms: _317  and  _319
REMARK  117  A    between atoms: _319  and  _320
REMARK  118  A    between atoms: _322  and  _324
REMARK  119  A    between atoms: _324  and  _325
REMARK  120  A    between atoms: _324  and  _327
REMARK  121  A    between atoms: _327  and  _328
REMARK  122  A    between atoms: _330  and  _332
REMARK  123  A    between atoms: _332  and  _333
REMARK  124  A    between atoms: _332  and  _335
REMARK  125  A    between atoms: _335  and  _336
REMARK  126  A    between atoms: _339  and  _341
REMARK  127  A    between atoms: _341  and  _342
REMARK  128  A    between atoms: _341  and  _344
REMARK  129  A    between atoms: _344  and  _345
REMARK  130  A    between atoms: _348  and  _350
REMARK  131  A    between atoms: _350  and  _351
REMARK  132  A    between atoms: _350  and  _353
REMARK  133  A    between atoms: _353  and  _354
REMARK  134  A    between atoms: _358  and  _359
REMARK  135  A    between atoms: _365  and  _366
REMARK  136  A    between atoms: _371  and  _373
REMARK  137  A    between atoms: _373  and  _374
REMARK  138  A    between atoms: _373  and  _376
REMARK  139  A    between atoms: _376  and  _377
REMARK  140  A    between atoms: _380  and  _382
REMARK  141  A    between atoms: _382  and  _383
REMARK  142  A    between atoms: _382  and  _385
REMARK  143  A    between atoms: _385  and  _386
REMARK  144  A    between atoms: _389  and  _391
REMARK  145  A    between atoms: _391  and  _392
REMARK  146  A    between atoms: _391  and  _394
REMARK  147  A    between atoms: _397  and  _399
REMARK  148  A    between atoms: _399  and  _400
REMARK  149  A    between atoms: _399  and  _402
REMARK  150  A    between atoms: _402  and  _403
REMARK  151  A    between atoms: _413  and  _415
REMARK  152  A    between atoms: _415  and  _416
REMARK  153  A    between atoms: _415  and  _418
REMARK  154  A    between atoms: _418  and  _419
REMARK  155  A    between atoms: _424  and  _426
REMARK  156  A    between atoms: _426  and  _427
REMARK  157  A    between atoms: _426  and  _429
REMARK  158  A    between atoms: _429  and  _430
REMARK  159  A    between atoms: _430  and  _431
REMARK  160  A    between atoms: _431  and  _432
REMARK                            x       y       z     vdW  Elec       q    Type
REMARK                         _______ _______ _______ _____ _____    ______ ____
ROOT
ATOM      1  CG  TRP A   1      -8.774   0.060  24.013  0.00  0.00    -0.002 A 
ATOM      2  CD1 TRP A   1      -7.546   0.630  24.201  0.00  0.00    +0.068 A 
ATOM      3  NE1 TRP A   1      -6.806   0.553  23.046  0.00  0.00    -0.352 N 
ATOM      4  HE1 TRP A   1      -5.838   0.914  22.923  0.00  0.00    +0.166 HD
ATOM      5  CE2 TRP A   1      -7.550  -0.077  22.082  0.00  0.00    +0.056 A 
ATOM      6  CZ2 TRP A   1      -7.234  -0.386  20.758  0.00  0.00    +0.017 A 
ATOM      7  CH2 TRP A   1      -8.188  -1.032  20.011  0.00  0.00    +0.001 A 
ATOM      8  CZ3 TRP A   1      -9.442  -1.368  20.553  0.00  0.00    +0.000 A 
ATOM      9  CE3 TRP A   1      -9.759  -1.060  21.873  0.00  0.00    +0.001 A 
ATOM     10  CD2 TRP A   1      -8.801  -0.401  22.657  0.00  0.00    +0.013 A 
ENDROOT
BRANCH   1  11
ATOM     11  CB  TRP A   1      -9.888  -0.023  24.997  0.00  0.00    +0.053 C 
BRANCH  11  12
ATOM     12  CA  TRP A   1     -10.872   1.148  24.910  0.00  0.00    +0.137 C 
BRANCH  12  13
ATOM     13  N   TRP A   1     -10.378   2.309  25.637  0.00  0.00    -0.239 NA
ATOM     14  H   TRP A   1      -9.738   2.177  26.446  0.00  0.00    +0.142 HD
ENDBRANCH  12  13
BRANCH  12  15
ATOM     15  C   TRP A   1     -12.221   0.685  25.408  0.00  0.00    +0.224 C 
ATOM     16  O   TRP A   1     -12.491   0.665  26.610  0.00  0.00    -0.287 OA
ENDBRANCH  12  15
ENDBRANCH  11  12
ENDBRANCH   1  11
TORSDOF 4
REMARK  Name = ../refined-set-2016/3ibn/3ibn_pocket.pdb
REMARK  160 active torsions:
REMARK  status: ('A' for Active; 'I' for Inactive)
REMARK    1  A    between atoms: _1  and  _3
REMARK    2  A    between atoms: _3  and  _4
REMARK    3  A    between atoms: _3  and  _6
REMARK    4  A    between atoms: _6  and  _7
REMARK    5  A    between atoms: _17  and  _19
REMARK    6  A    between atoms: _19  and  _20
REMARK    7  A    between atoms: _19  and  _22
REMARK    8  A    between atoms: _22  and  _23
REMARK    9  A    between atoms: _28  and  _29
REMARK   10  A    between atoms: _31  and  _33
REMARK   11  A    between atoms: _33  and  _34
REMARK   12  A    between atoms: _33  and  _36
REMARK   13  A    between atoms: _36  and  _37
REMARK   14  A    between atoms: _40  and  _41
REMARK   15  A    between atoms: _46  and  _48
REMARK   16  A    between atoms: _48  and  _49
REMARK   17  A    between atoms: _48  and  _51
REMARK   18  A    between atoms: _51  and  _52
REMARK   19  A    between atoms: _57  and  _59
REMARK   20  A    between atoms: _59  and  _60
REMARK   21  A    between atoms: _63  and  _65
REMARK   22  A    between atoms: _65  and  _66
REMARK   23  A    between atoms: _65  and  _68
REMARK   24  A    between atoms: _68  and  _69
REMARK   25  A    between atoms: _74  and  _76
REMARK   26  A    between atoms: _76  and  _77
REMARK   27  A    between atoms: _76  and  _79
REMARK   28  A    between atoms: _79  and  _80
REMARK   29  A    between atoms: _83  and  _85
REMARK   30  A    between atoms: _85  and  _86
REMARK   31  A    between atoms: _85  and  _88
REMARK   32  A    between atoms: _88  and  _89
REMARK   33  A    between atoms: _89  and  _90
REMARK   34  A    between atoms: _95  and  _97
REMARK   35  A    between atoms: _97  and  _98
REMARK   36  A    between atoms: _97  and  _100
REMARK   37  A    between atoms: _100  and  _101
REMARK   38  A    between atoms: _107  and  _109
REMARK   39  A    between atoms: _120  and  _123
REMARK   40  A    between atoms: _123  and  _124
REMARK   41  A    between atoms: _132  and  _133
REMARK   42  A    between atoms: _141  and  _143
REMARK   43  A    between atoms: _143  and  _144
REMARK   44  A    between atoms: _143  and  _146
REMARK   45  A    between atoms: _146  and  _147
REMARK   46  A    between atoms: _147  and  _148
REMARK   47  A    between atoms: _151  and  _153
REMARK   48  A    between atoms: _153  and  _154
REMARK   49  A    between atoms: _153  and  _156
REMARK   50  A    between atoms: _156  and  _157
REMARK   51  A    between atoms: _162  and  _164
REMARK   52  A    between atoms: _164  and  _165
REMARK   53  A    between atoms: _164  and  _167
REMARK   54  A    between atoms: _167  and  _168
REMARK   55  A    between atoms: _168  and  _169
REMARK   56  A    between atoms: _172  and  _174
REMARK   57  A    between atoms: _174  and  _175
REMARK   58  A    between atoms: _174  and  _177
REMARK   59  A    between atoms: _177  and  _178
REMARK   60  A    between atoms: _181  and  _183
REMARK   61  A    between atoms: _183  and  _184
REMARK   62  A    between atoms: _183  and  _186
REMARK   63  A    between atoms: _186  and  _187
REMARK   64  A    between atoms: _188  and  ZN_441
REMARK   65  A    between atoms: _192  and  _194
REMARK   66  A    between atoms: _194  and  _195
REMARK   67  A    between atoms: _194  and  _197
REMARK   68  A    between atoms: _197  and  _198
REMARK   69  A    between atoms: _201  and  _203
REMARK   70  A    between atoms: _203  and  _204
REMARK   71  A    between atoms: _203  and  _206
REMARK   72  A    between atoms: _209  and  _211
REMARK   73  A    between atoms: _211  and  _212
REMARK   74  A    between atoms: _211  and  _214
REMARK   75  A    between atoms: _214  and  _215
REMARK   76  A    between atoms: _220  and  _222
REMARK   77  A    between atoms: _222  and  _223
REMARK   78  A    between atoms: _222  and  _225
REMARK   79  A    between atoms: _225  and  _226
REMARK   80  A    between atoms: _229  and  _231
REMARK   81  A    between atoms: _231  and  _232
REMARK   82  A    between atoms: _231  and  _234
REMARK   83  A    between atoms: _234  and  _235
REMARK   84  A    between atoms: _241  and  _243
REMARK   85  A    between atoms: _243  and  _244
REMARK   86  A    between atoms: _246  and  _248
REMARK   87  A    between atoms: _248  and  _249
REMARK   88  A    between atoms: _248  and  _251
REMARK   89  A    between atoms: _251  and  _252
REMARK   90  A    between atoms: _252  and  _253
REMARK   91  A    between atoms: _253  and  _254
REMARK   92  A    between atoms: _254  and  _255
REMARK   93  A    between atoms: _259  and  _261
REMARK   94  A    between atoms: _261  and  _262
REMARK   95  A    between atoms: _265  and  _267
REMARK   96  A    between atoms: _267  and  _268
REMARK   97  A    between atoms: _267  and  _270
REMARK   98  A    between atoms: _273  and  _275
REMARK   99  A    between atoms: _275  and  _276
REMARK  100  A    between atoms: _275  and  _278
REMARK  101  A    between atoms: _278  and  _279
REMARK  102  A    between atoms: _279  and  _280
REMARK  103  A    between atoms: _285  and  _287
REMARK  104  A    between atoms: _287  and  _288
REMARK  105  A    between atoms: _287  and  _290
REMARK  106  A    between atoms: _290  and  _291
REMARK  107  A    between atoms: _294  and  _296
REMARK  108  A    between atoms: _296  and  _297
REMARK  109  A    between atoms: _300  and  _302
REMARK  110  A    between atoms: _302  and  _303
REMARK  111  A    between atoms: _302  and  _305
REMARK  112  A    between atoms: _308  and  _310
REMARK  113  A    between atoms: _310  and  _311
REMARK  114  A    between atoms: _310  and  _313
REMARK  115  A    between atoms: _313  and  _314
REMARK  116  A    between atoms: _317  and  _319
REMARK  117  A    between atoms: _319  and  _320
REMARK  118  A    between atoms: _322  and  _324
REMARK  119  A    between atoms: _324  and  _325
REMARK  120  A    between atoms: _324  and  _327
REMARK  121  A    between atoms: _327  and  _328
REMARK  122  A    between atoms: _330  and  _332
REMARK  123  A    between atoms: _332  and  _333
REMARK  124  A    between atoms: _332  and  _335
REMARK  125  A    between atoms: _335  and  _336
REMARK  126  A    between atoms: _339  and  _341
REMARK  127  A    between atoms: _341  and  _342
REMARK  128  A    between atoms: _341  and  _344
REMARK  129  A    between atoms: _344  and  _345
REMARK  130  A    between atoms: _348  and  _350
REMARK  131  A    between atoms: _350  and  _351
REMARK  132  A    between atoms: _350  and  _353
REMARK  133  A    between atoms: _353  and  _354
REMARK  134  A    between atoms: _358  and  _359
REMARK  135  A    between atoms: _365  and  _366
REMARK  136  A    between atoms: _371  and  _373
REMARK  137  A    between atoms: _373  and  _374
REMARK  138  A    between atoms: _373  and  _376
REMARK  139  A    between atoms: _376  and  _377
REMARK  140  A    between atoms: _380  and  _382
REMARK  141  A    between atoms: _382  and  _383
REMARK  142  A    between atoms: _382  and  _385
REMARK  143  A    between atoms: _385  and  _386
REMARK  144  A    between atoms: _389  and  _391
REMARK  145  A    between atoms: _391  and  _392
REMARK  146  A    between atoms: _391  and  _394
REMARK  147  A    between atoms: _397  and  _399
REMARK  148  A    between atoms: _399  and  _400
REMARK  149  A    between atoms: _399  and  _402
REMARK  150  A    between atoms: _402  and  _403
REMARK  151  A    between atoms: _413  and  _415
REMARK  152  A    between atoms: _415  and  _416
REMARK  153  A    between atoms: _415  and  _418
REMARK  154  A    between atoms: _418  and  _419
REMARK  155  A    between atoms: _424  and  _426
REMARK  156  A    between atoms: _426  and  _427
REMARK  157  A    between atoms: _426  and  _429
REMARK  158  A    between atoms: _429  and  _430
REMARK  159  A    between atoms: _430  and  _431
REMARK  160  A    between atoms: _431  and  _432
REMARK                            x       y       z     vdW  Elec       q    Type
REMARK                         _______ _______ _______ _____ _____    ______ ____
ROOT
ATOM      1  CB  ASN A   1      -1.889  -7.458  10.297  0.00  0.00    +0.110 C 
ENDROOT
BRANCH   1   2
ATOM      2  CG  ASN A   1      -3.398  -7.586  10.144  0.00  0.00    +0.221 C 
ATOM      3  OD1 ASN A   1      -4.052  -8.295  10.908  0.00  0.00    -0.275 OA
ATOM      4  ND2 ASN A   1      -3.957  -6.894   9.156  0.00  0.00    -0.329 N 
ATOM      5 HD21 ASN A   1      -4.985  -6.940   9.006  0.00  0.00    +0.145 HD
ATOM      6 HD22 ASN A   1      -3.366  -6.307   8.533  0.00  0.00    +0.145 HD
ENDBRANCH   1   2
BRANCH   1   7
ATOM      7  CA  ASN A   1      -1.340  -8.300  11.453  0.00  0.00    +0.142 C 
BRANCH   7   8
ATOM      8  N   ASN A   1      -1.712  -9.695  11.272  0.00  0.00    -0.239 NA
ATOM      9  H   ASN A   1      -2.617  -9.923  10.814  0.00  0.00    +0.142 HD
ENDBRANCH   7   8
BRANCH   7  10
ATOM     10  C   ASN A   1      -1.928  -7.827  12.787  0.00  0.00    +0.225 C 
ATOM     11  O   ASN A   1      -2.689  -6.862  12.832  0.00  0.00    -0.287 OA
ENDBRANCH   7  10
ENDBRANCH   1   7
TORSDOF 4
REMARK  Name = ../refined-set-2016/3ibn/3ibn_pocket.pdb
REMARK  160 active torsions:
REMARK  status: ('A' for Active; 'I' for Inactive)
REMARK    1  A    between atoms: _1  and  _3
REMARK    2  A    between atoms: _3  and  _4
REMARK    3  A    between atoms: _3  and  _6
REMARK    4  A    between atoms: _6  and  _7
REMARK    5  A    between atoms: _17  and  _19
REMARK    6  A    between atoms: _19  and  _20
REMARK    7  A    between atoms: _19  and  _22
REMARK    8  A    between atoms: _22  and  _23
REMARK    9  A    between atoms: _28  and  _29
REMARK   10  A    between atoms: _31  and  _33
REMARK   11  A    between atoms: _33  and  _34
REMARK   12  A    between atoms: _33  and  _36
REMARK   13  A    between atoms: _36  and  _37
REMARK   14  A    between atoms: _40  and  _41
REMARK   15  A    between atoms: _46  and  _48
REMARK   16  A    between atoms: _48  and  _49
REMARK   17  A    between atoms: _48  and  _51
REMARK   18  A    between atoms: _51  and  _52
REMARK   19  A    between atoms: _57  and  _59
REMARK   20  A    between atoms: _59  and  _60
REMARK   21  A    between atoms: _63  and  _65
REMARK   22  A    between atoms: _65  and  _66
REMARK   23  A    between atoms: _65  and  _68
REMARK   24  A    between atoms: _68  and  _69
REMARK   25  A    between atoms: _74  and  _76
REMARK   26  A    between atoms: _76  and  _77
REMARK   27  A    between atoms: _76  and  _79
REMARK   28  A    between atoms: _79  and  _80
REMARK   29  A    between atoms: _83  and  _85
REMARK   30  A    between atoms: _85  and  _86
REMARK   31  A    between atoms: _85  and  _88
REMARK   32  A    between atoms: _88  and  _89
REMARK   33  A    between atoms: _89  and  _90
REMARK   34  A    between atoms: _95  and  _97
REMARK   35  A    between atoms: _97  and  _98
REMARK   36  A    between atoms: _97  and  _100
REMARK   37  A    between atoms: _100  and  _101
REMARK   38  A    between atoms: _107  and  _109
REMARK   39  A    between atoms: _120  and  _123
REMARK   40  A    between atoms: _123  and  _124
REMARK   41  A    between atoms: _132  and  _133
REMARK   42  A    between atoms: _141  and  _143
REMARK   43  A    between atoms: _143  and  _144
REMARK   44  A    between atoms: _143  and  _146
REMARK   45  A    between atoms: _146  and  _147
REMARK   46  A    between atoms: _147  and  _148
REMARK   47  A    between atoms: _151  and  _153
REMARK   48  A    between atoms: _153  and  _154
REMARK   49  A    between atoms: _153  and  _156
REMARK   50  A    between atoms: _156  and  _157
REMARK   51  A    between atoms: _162  and  _164
REMARK   52  A    between atoms: _164  and  _165
REMARK   53  A    between atoms: _164  and  _167
REMARK   54  A    between atoms: _167  and  _168
REMARK   55  A    between atoms: _168  and  _169
REMARK   56  A    between atoms: _172  and  _174
REMARK   57  A    between atoms: _174  and  _175
REMARK   58  A    between atoms: _174  and  _177
REMARK   59  A    between atoms: _177  and  _178
REMARK   60  A    between atoms: _181  and  _183
REMARK   61  A    between atoms: _183  and  _184
REMARK   62  A    between atoms: _183  and  _186
REMARK   63  A    between atoms: _186  and  _187
REMARK   64  A    between atoms: _188  and  ZN_441
REMARK   65  A    between atoms: _192  and  _194
REMARK   66  A    between atoms: _194  and  _195
REMARK   67  A    between atoms: _194  and  _197
REMARK   68  A    between atoms: _197  and  _198
REMARK   69  A    between atoms: _201  and  _203
REMARK   70  A    between atoms: _203  and  _204
REMARK   71  A    between atoms: _203  and  _206
REMARK   72  A    between atoms: _209  and  _211
REMARK   73  A    between atoms: _211  and  _212
REMARK   74  A    between atoms: _211  and  _214
REMARK   75  A    between atoms: _214  and  _215
REMARK   76  A    between atoms: _220  and  _222
REMARK   77  A    between atoms: _222  and  _223
REMARK   78  A    between atoms: _222  and  _225
REMARK   79  A    between atoms: _225  and  _226
REMARK   80  A    between atoms: _229  and  _231
REMARK   81  A    between atoms: _231  and  _232
REMARK   82  A    between atoms: _231  and  _234
REMARK   83  A    between atoms: _234  and  _235
REMARK   84  A    between atoms: _241  and  _243
REMARK   85  A    between atoms: _243  and  _244
REMARK   86  A    between atoms: _246  and  _248
REMARK   87  A    between atoms: _248  and  _249
REMARK   88  A    between atoms: _248  and  _251
REMARK   89  A    between atoms: _251  and  _252
REMARK   90  A    between atoms: _252  and  _253
REMARK   91  A    between atoms: _253  and  _254
REMARK   92  A    between atoms: _254  and  _255
REMARK   93  A    between atoms: _259  and  _261
REMARK   94  A    between atoms: _261  and  _262
REMARK   95  A    between atoms: _265  and  _267
REMARK   96  A    between atoms: _267  and  _268
REMARK   97  A    between atoms: _267  and  _270
REMARK   98  A    between atoms: _273  and  _275
REMARK   99  A    between atoms: _275  and  _276
REMARK  100  A    between atoms: _275  and  _278
REMARK  101  A    between atoms: _278  and  _279
REMARK  102  A    between atoms: _279  and  _280
REMARK  103  A    between atoms: _285  and  _287
REMARK  104  A    between atoms: _287  and  _288
REMARK  105  A    between atoms: _287  and  _290
REMARK  106  A    between atoms: _290  and  _291
REMARK  107  A    between atoms: _294  and  _296
REMARK  108  A    between atoms: _296  and  _297
REMARK  109  A    between atoms: _300  and  _302
REMARK  110  A    between atoms: _302  and  _303
REMARK  111  A    between atoms: _302  and  _305
REMARK  112  A    between atoms: _308  and  _310
REMARK  113  A    between atoms: _310  and  _311
REMARK  114  A    between atoms: _310  and  _313
REMARK  115  A    between atoms: _313  and  _314
REMARK  116  A    between atoms: _317  and  _319
REMARK  117  A    between atoms: _319  and  _320
REMARK  118  A    between atoms: _322  and  _324
REMARK  119  A    between atoms: _324  and  _325
REMARK  120  A    between atoms: _324  and  _327
REMARK  121  A    between atoms: _327  and  _328
REMARK  122  A    between atoms: _330  and  _332
REMARK  123  A    between atoms: _332  and  _333
REMARK  124  A    between atoms: _332  and  _335
REMARK  125  A    between atoms: _335  and  _336
REMARK  126  A    between atoms: _339  and  _341
REMARK  127  A    between atoms: _341  and  _342
REMARK  128  A    between atoms: _341  and  _344
REMARK  129  A    between atoms: _344  and  _345
REMARK  130  A    between atoms: _348  and  _350
REMARK  131  A    between atoms: _350  and  _351
REMARK  132  A    between atoms: _350  and  _353
REMARK  133  A    between atoms: _353  and  _354
REMARK  134  A    between atoms: _358  and  _359
REMARK  135  A    between atoms: _365  and  _366
REMARK  136  A    between atoms: _371  and  _373
REMARK  137  A    between atoms: _373  and  _374
REMARK  138  A    between atoms: _373  and  _376
REMARK  139  A    between atoms: _376  and  _377
REMARK  140  A    between atoms: _380  and  _382
REMARK  141  A    between atoms: _382  and  _383
REMARK  142  A    between atoms: _382  and  _385
REMARK  143  A    between atoms: _385  and  _386
REMARK  144  A    between atoms: _389  and  _391
REMARK  145  A    between atoms: _391  and  _392
REMARK  146  A    between atoms: _391  and  _394
REMARK  147  A    between atoms: _397  and  _399
REMARK  148  A    between atoms: _399  and  _400
REMARK  149  A    between atoms: _399  and  _402
REMARK  150  A    between atoms: _402  and  _403
REMARK  151  A    between atoms: _413  and  _415
REMARK  152  A    between atoms: _415  and  _416
REMARK  153  A    between atoms: _415  and  _418
REMARK  154  A    between atoms: _418  and  _419
REMARK  155  A    between atoms: _424  and  _426
REMARK  156  A    between atoms: _426  and  _427
REMARK  157  A    between atoms: _426  and  _429
REMARK  158  A    between atoms: _429  and  _430
REMARK  159  A    between atoms: _430  and  _431
REMARK  160  A    between atoms: _431  and  _432
REMARK                            x       y       z     vdW  Elec       q    Type
REMARK                         _______ _______ _______ _____ _____    ______ ____
ROOT
ATOM      1  NE  ARG A   1       2.265  -3.750  21.163  0.00  0.00    -0.265 N 
ATOM      2  CZ  ARG A   1       2.414  -2.672  21.935  0.00  0.00    +0.342 C 
ATOM      3  NH2 ARG A   1       3.554  -2.479  22.581  0.00  0.00    -0.292 N 
ATOM      4 HH21 ARG A   1       3.675  -1.640  23.184  0.00  0.00    +0.255 HD
ATOM      5 HH22 ARG A   1       4.329  -3.166  22.485  0.00  0.00    +0.255 HD
ATOM      6  NH1 ARG A   1       1.430  -1.785  22.066  0.00  0.00    -0.292 N 
ATOM      7 HH11 ARG A   1       1.560  -0.949  22.671  0.00  0.00    +0.255 HD
ATOM      8 HH12 ARG A   1       0.531  -1.928  21.563  0.00  0.00    +0.255 HD
ATOM      9  HE  ARG A   1       3.066  -4.410  21.100  0.00  0.00    +0.259 HD
ENDROOT
BRANCH   1  10
ATOM     10  CD  ARG A   1       1.059  -4.074  20.398  0.00  0.00    +0.174 C 
BRANCH  10  11
ATOM     11  CG  ARG A   1       1.148  -5.458  19.734  0.00  0.00    +0.045 C 
BRANCH  11  12
ATOM     12  CB  ARG A   1       0.031  -5.695  18.717  0.00  0.00    +0.029 C 
BRANCH  12  13
ATOM     13  CA  ARG A   1      -0.106  -7.155  18.266  0.00  0.00    +0.133 C 
BRANCH  13  14
ATOM     14  N   ARG A   1      -1.089  -7.274  17.205  0.00  0.00    -0.239 NA
ATOM     15  H   ARG A   1      -1.916  -6.643  17.207  0.00  0.00    +0.142 HD
ENDBRANCH  13  14
BRANCH  13  16
ATOM     16  C   ARG A   1      -0.608  -8.005  19.428  0.00  0.00    +0.224 C 
ATOM     17  O   ARG A   1      -1.794  -7.981  19.758  0.00  0.00    -0.287 OA
ENDBRANCH  13  16
ENDBRANCH  12  13
ENDBRANCH  11  12
ENDBRANCH  10  11
ENDBRANCH   1  10
TORSDOF 6
REMARK  Name = ../refined-set-2016/3ibn/3ibn_pocket.pdb
REMARK  160 active torsions:
REMARK  status: ('A' for Active; 'I' for Inactive)
REMARK    1  A    between atoms: _1  and  _3
REMARK    2  A    between atoms: _3  and  _4
REMARK    3  A    between atoms: _3  and  _6
REMARK    4  A    between atoms: _6  and  _7
REMARK    5  A    between atoms: _17  and  _19
REMARK    6  A    between atoms: _19  and  _20
REMARK    7  A    between atoms: _19  and  _22
REMARK    8  A    between atoms: _22  and  _23
REMARK    9  A    between atoms: _28  and  _29
REMARK   10  A    between atoms: _31  and  _33
REMARK   11  A    between atoms: _33  and  _34
REMARK   12  A    between atoms: _33  and  _36
REMARK   13  A    between atoms: _36  and  _37
REMARK   14  A    between atoms: _40  and  _41
REMARK   15  A    between atoms: _46  and  _48
REMARK   16  A    between atoms: _48  and  _49
REMARK   17  A    between atoms: _48  and  _51
REMARK   18  A    between atoms: _51  and  _52
REMARK   19  A    between atoms: _57  and  _59
REMARK   20  A    between atoms: _59  and  _60
REMARK   21  A    between atoms: _63  and  _65
REMARK   22  A    between atoms: _65  and  _66
REMARK   23  A    between atoms: _65  and  _68
REMARK   24  A    between atoms: _68  and  _69
REMARK   25  A    between atoms: _74  and  _76
REMARK   26  A    between atoms: _76  and  _77
REMARK   27  A    between atoms: _76  and  _79
REMARK   28  A    between atoms: _79  and  _80
REMARK   29  A    between atoms: _83  and  _85
REMARK   30  A    between atoms: _85  and  _86
REMARK   31  A    between atoms: _85  and  _88
REMARK   32  A    between atoms: _88  and  _89
REMARK   33  A    between atoms: _89  and  _90
REMARK   34  A    between atoms: _95  and  _97
REMARK   35  A    between atoms: _97  and  _98
REMARK   36  A    between atoms: _97  and  _100
REMARK   37  A    between atoms: _100  and  _101
REMARK   38  A    between atoms: _107  and  _109
REMARK   39  A    between atoms: _120  and  _123
REMARK   40  A    between atoms: _123  and  _124
REMARK   41  A    between atoms: _132  and  _133
REMARK   42  A    between atoms: _141  and  _143
REMARK   43  A    between atoms: _143  and  _144
REMARK   44  A    between atoms: _143  and  _146
REMARK   45  A    between atoms: _146  and  _147
REMARK   46  A    between atoms: _147  and  _148
REMARK   47  A    between atoms: _151  and  _153
REMARK   48  A    between atoms: _153  and  _154
REMARK   49  A    between atoms: _153  and  _156
REMARK   50  A    between atoms: _156  and  _157
REMARK   51  A    between atoms: _162  and  _164
REMARK   52  A    between atoms: _164  and  _165
REMARK   53  A    between atoms: _164  and  _167
REMARK   54  A    between atoms: _167  and  _168
REMARK   55  A    between atoms: _168  and  _169
REMARK   56  A    between atoms: _172  and  _174
REMARK   57  A    between atoms: _174  and  _175
REMARK   58  A    between atoms: _174  and  _177
REMARK   59  A    between atoms: _177  and  _178
REMARK   60  A    between atoms: _181  and  _183
REMARK   61  A    between atoms: _183  and  _184
REMARK   62  A    between atoms: _183  and  _186
REMARK   63  A    between atoms: _186  and  _187
REMARK   64  A    between atoms: _188  and  ZN_441
REMARK   65  A    between atoms: _192  and  _194
REMARK   66  A    between atoms: _194  and  _195
REMARK   67  A    between atoms: _194  and  _197
REMARK   68  A    between atoms: _197  and  _198
REMARK   69  A    between atoms: _201  and  _203
REMARK   70  A    between atoms: _203  and  _204
REMARK   71  A    between atoms: _203  and  _206
REMARK   72  A    between atoms: _209  and  _211
REMARK   73  A    between atoms: _211  and  _212
REMARK   74  A    between atoms: _211  and  _214
REMARK   75  A    between atoms: _214  and  _215
REMARK   76  A    between atoms: _220  and  _222
REMARK   77  A    between atoms: _222  and  _223
REMARK   78  A    between atoms: _222  and  _225
REMARK   79  A    between atoms: _225  and  _226
REMARK   80  A    between atoms: _229  and  _231
REMARK   81  A    between atoms: _231  and  _232
REMARK   82  A    between atoms: _231  and  _234
REMARK   83  A    between atoms: _234  and  _235
REMARK   84  A    between atoms: _241  and  _243
REMARK   85  A    between atoms: _243  and  _244
REMARK   86  A    between atoms: _246  and  _248
REMARK   87  A    between atoms: _248  and  _249
REMARK   88  A    between atoms: _248  and  _251
REMARK   89  A    between atoms: _251  and  _252
REMARK   90  A    between atoms: _252  and  _253
REMARK   91  A    between atoms: _253  and  _254
REMARK   92  A    between atoms: _254  and  _255
REMARK   93  A    between atoms: _259  and  _261
REMARK   94  A    between atoms: _261  and  _262
REMARK   95  A    between atoms: _265  and  _267
REMARK   96  A    between atoms: _267  and  _268
REMARK   97  A    between atoms: _267  and  _270
REMARK   98  A    between atoms: _273  and  _275
REMARK   99  A    between atoms: _275  and  _276
REMARK  100  A    between atoms: _275  and  _278
REMARK  101  A    between atoms: _278  and  _279
REMARK  102  A    between atoms: _279  and  _280
REMARK  103  A    between atoms: _285  and  _287
REMARK  104  A    between atoms: _287  and  _288
REMARK  105  A    between atoms: _287  and  _290
REMARK  106  A    between atoms: _290  and  _291
REMARK  107  A    between atoms: _294  and  _296
REMARK  108  A    between atoms: _296  and  _297
REMARK  109  A    between atoms: _300  and  _302
REMARK  110  A    between atoms: _302  and  _303
REMARK  111  A    between atoms: _302  and  _305
REMARK  112  A    between atoms: _308  and  _310
REMARK  113  A    between atoms: _310  and  _311
REMARK  114  A    between atoms: _310  and  _313
REMARK  115  A    between atoms: _313  and  _314
REMARK  116  A    between atoms: _317  and  _319
REMARK  117  A    between atoms: _319  and  _320
REMARK  118  A    between atoms: _322  and  _324
REMARK  119  A    between atoms: _324  and  _325
REMARK  120  A    between atoms: _324  and  _327
REMARK  121  A    between atoms: _327  and  _328
REMARK  122  A    between atoms: _330  and  _332
REMARK  123  A    between atoms: _332  and  _333
REMARK  124  A    between atoms: _332  and  _335
REMARK  125  A    between atoms: _335  and  _336
REMARK  126  A    between atoms: _339  and  _341
REMARK  127  A    between atoms: _341  and  _342
REMARK  128  A    between atoms: _341  and  _344
REMARK  129  A    between atoms: _344  and  _345
REMARK  130  A    between atoms: _348  and  _350
REMARK  131  A    between atoms: _350  and  _351
REMARK  132  A    between atoms: _350  and  _353
REMARK  133  A    between atoms: _353  and  _354
REMARK  134  A    between atoms: _358  and  _359
REMARK  135  A    between atoms: _365  and  _366
REMARK  136  A    between atoms: _371  and  _373
REMARK  137  A    between atoms: _373  and  _374
REMARK  138  A    between atoms: _373  and  _376
REMARK  139  A    between atoms: _376  and  _377
REMARK  140  A    between atoms: _380  and  _382
REMARK  141  A    between atoms: _382  and  _383
REMARK  142  A    between atoms: _382  and  _385
REMARK  143  A    between atoms: _385  and  _386
REMARK  144  A    between atoms: _389  and  _391
REMARK  145  A    between atoms: _391  and  _392
REMARK  146  A    between atoms: _391  and  _394
REMARK  147  A    between atoms: _397  and  _399
REMARK  148  A    between atoms: _399  and  _400
REMARK  149  A    between atoms: _399  and  _402
REMARK  150  A    between atoms: _402  and  _403
REMARK  151  A    between atoms: _413  and  _415
REMARK  152  A    between atoms: _415  and  _416
REMARK  153  A    between atoms: _415  and  _418
REMARK  154  A    between atoms: _418  and  _419
REMARK  155  A    between atoms: _424  and  _426
REMARK  156  A    between atoms: _426  and  _427
REMARK  157  A    between atoms: _426  and  _429
REMARK  158  A    between atoms: _429  and  _430
REMARK  159  A    between atoms: _430  and  _431
REMARK  160  A    between atoms: _431  and  _432
REMARK                            x       y       z     vdW  Elec       q    Type
REMARK                         _______ _______ _______ _____ _____    ______ ____
ROOT
ATOM      1  O   HOH     1      -1.369  -3.947  15.537  0.00  0.00    +0.000 OA
ENDROOT
TORSDOF 0
REMARK  Name = ../refined-set-2016/3ibn/3ibn_pocket.pdb
REMARK  160 active torsions:
REMARK  status: ('A' for Active; 'I' for Inactive)
REMARK    1  A    between atoms: _1  and  _3
REMARK    2  A    between atoms: _3  and  _4
REMARK    3  A    between atoms: _3  and  _6
REMARK    4  A    between atoms: _6  and  _7
REMARK    5  A    between atoms: _17  and  _19
REMARK    6  A    between atoms: _19  and  _20
REMARK    7  A    between atoms: _19  and  _22
REMARK    8  A    between atoms: _22  and  _23
REMARK    9  A    between atoms: _28  and  _29
REMARK   10  A    between atoms: _31  and  _33
REMARK   11  A    between atoms: _33  and  _34
REMARK   12  A    between atoms: _33  and  _36
REMARK   13  A    between atoms: _36  and  _37
REMARK   14  A    between atoms: _40  and  _41
REMARK   15  A    between atoms: _46  and  _48
REMARK   16  A    between atoms: _48  and  _49
REMARK   17  A    between atoms: _48  and  _51
REMARK   18  A    between atoms: _51  and  _52
REMARK   19  A    between atoms: _57  and  _59
REMARK   20  A    between atoms: _59  and  _60
REMARK   21  A    between atoms: _63  and  _65
REMARK   22  A    between atoms: _65  and  _66
REMARK   23  A    between atoms: _65  and  _68
REMARK   24  A    between atoms: _68  and  _69
REMARK   25  A    between atoms: _74  and  _76
REMARK   26  A    between atoms: _76  and  _77
REMARK   27  A    between atoms: _76  and  _79
REMARK   28  A    between atoms: _79  and  _80
REMARK   29  A    between atoms: _83  and  _85
REMARK   30  A    between atoms: _85  and  _86
REMARK   31  A    between atoms: _85  and  _88
REMARK   32  A    between atoms: _88  and  _89
REMARK   33  A    between atoms: _89  and  _90
REMARK   34  A    between atoms: _95  and  _97
REMARK   35  A    between atoms: _97  and  _98
REMARK   36  A    between atoms: _97  and  _100
REMARK   37  A    between atoms: _100  and  _101
REMARK   38  A    between atoms: _107  and  _109
REMARK   39  A    between atoms: _120  and  _123
REMARK   40  A    between atoms: _123  and  _124
REMARK   41  A    between atoms: _132  and  _133
REMARK   42  A    between atoms: _141  and  _143
REMARK   43  A    between atoms: _143  and  _144
REMARK   44  A    between atoms: _143  and  _146
REMARK   45  A    between atoms: _146  and  _147
REMARK   46  A    between atoms: _147  and  _148
REMARK   47  A    between atoms: _151  and  _153
REMARK   48  A    between atoms: _153  and  _154
REMARK   49  A    between atoms: _153  and  _156
REMARK   50  A    between atoms: _156  and  _157
REMARK   51  A    between atoms: _162  and  _164
REMARK   52  A    between atoms: _164  and  _165
REMARK   53  A    between atoms: _164  and  _167
REMARK   54  A    between atoms: _167  and  _168
REMARK   55  A    between atoms: _168  and  _169
REMARK   56  A    between atoms: _172  and  _174
REMARK   57  A    between atoms: _174  and  _175
REMARK   58  A    between atoms: _174  and  _177
REMARK   59  A    between atoms: _177  and  _178
REMARK   60  A    between atoms: _181  and  _183
REMARK   61  A    between atoms: _183  and  _184
REMARK   62  A    between atoms: _183  and  _186
REMARK   63  A    between atoms: _186  and  _187
REMARK   64  A    between atoms: _188  and  ZN_441
REMARK   65  A    between atoms: _192  and  _194
REMARK   66  A    between atoms: _194  and  _195
REMARK   67  A    between atoms: _194  and  _197
REMARK   68  A    between atoms: _197  and  _198
REMARK   69  A    between atoms: _201  and  _203
REMARK   70  A    between atoms: _203  and  _204
REMARK   71  A    between atoms: _203  and  _206
REMARK   72  A    between atoms: _209  and  _211
REMARK   73  A    between atoms: _211  and  _212
REMARK   74  A    between atoms: _211  and  _214
REMARK   75  A    between atoms: _214  and  _215
REMARK   76  A    between atoms: _220  and  _222
REMARK   77  A    between atoms: _222  and  _223
REMARK   78  A    between atoms: _222  and  _225
REMARK   79  A    between atoms: _225  and  _226
REMARK   80  A    between atoms: _229  and  _231
REMARK   81  A    between atoms: _231  and  _232
REMARK   82  A    between atoms: _231  and  _234
REMARK   83  A    between atoms: _234  and  _235
REMARK   84  A    between atoms: _241  and  _243
REMARK   85  A    between atoms: _243  and  _244
REMARK   86  A    between atoms: _246  and  _248
REMARK   87  A    between atoms: _248  and  _249
REMARK   88  A    between atoms: _248  and  _251
REMARK   89  A    between atoms: _251  and  _252
REMARK   90  A    between atoms: _252  and  _253
REMARK   91  A    between atoms: _253  and  _254
REMARK   92  A    between atoms: _254  and  _255
REMARK   93  A    between atoms: _259  and  _261
REMARK   94  A    between atoms: _261  and  _262
REMARK   95  A    between atoms: _265  and  _267
REMARK   96  A    between atoms: _267  and  _268
REMARK   97  A    between atoms: _267  and  _270
REMARK   98  A    between atoms: _273  and  _275
REMARK   99  A    between atoms: _275  and  _276
REMARK  100  A    between atoms: _275  and  _278
REMARK  101  A    between atoms: _278  and  _279
REMARK  102  A    between atoms: _279  and  _280
REMARK  103  A    between atoms: _285  and  _287
REMARK  104  A    between atoms: _287  and  _288
REMARK  105  A    between atoms: _287  and  _290
REMARK  106  A    between atoms: _290  and  _291
REMARK  107  A    between atoms: _294  and  _296
REMARK  108  A    between atoms: _296  and  _297
REMARK  109  A    between atoms: _300  and  _302
REMARK  110  A    between atoms: _302  and  _303
REMARK  111  A    between atoms: _302  and  _305
REMARK  112  A    between atoms: _308  and  _310
REMARK  113  A    between atoms: _310  and  _311
REMARK  114  A    between atoms: _310  and  _313
REMARK  115  A    between atoms: _313  and  _314
REMARK  116  A    between atoms: _317  and  _319
REMARK  117  A    between atoms: _319  and  _320
REMARK  118  A    between atoms: _322  and  _324
REMARK  119  A    between atoms: _324  and  _325
REMARK  120  A    between atoms: _324  and  _327
REMARK  121  A    between atoms: _327  and  _328
REMARK  122  A    between atoms: _330  and  _332
REMARK  123  A    between atoms: _332  and  _333
REMARK  124  A    between atoms: _332  and  _335
REMARK  125  A    between atoms: _335  and  _336
REMARK  126  A    between atoms: _339  and  _341
REMARK  127  A    between atoms: _341  and  _342
REMARK  128  A    between atoms: _341  and  _344
REMARK  129  A    between atoms: _344  and  _345
REMARK  130  A    between atoms: _348  and  _350
REMARK  131  A    between atoms: _350  and  _351
REMARK  132  A    between atoms: _350  and  _353
REMARK  133  A    between atoms: _353  and  _354
REMARK  134  A    between atoms: _358  and  _359
REMARK  135  A    between atoms: _365  and  _366
REMARK  136  A    between atoms: _371  and  _373
REMARK  137  A    between atoms: _373  and  _374
REMARK  138  A    between atoms: _373  and  _376
REMARK  139  A    between atoms: _376  and  _377
REMARK  140  A    between atoms: _380  and  _382
REMARK  141  A    between atoms: _382  and  _383
REMARK  142  A    between atoms: _382  and  _385
REMARK  143  A    between atoms: _385  and  _386
REMARK  144  A    between atoms: _389  and  _391
REMARK  145  A    between atoms: _391  and  _392
REMARK  146  A    between atoms: _391  and  _394
REMARK  147  A    between atoms: _397  and  _399
REMARK  148  A    between atoms: _399  and  _400
REMARK  149  A    between atoms: _399  and  _402
REMARK  150  A    between atoms: _402  and  _403
REMARK  151  A    between atoms: _413  and  _415
REMARK  152  A    between atoms: _415  and  _416
REMARK  153  A    between atoms: _415  and  _418
REMARK  154  A    between atoms: _418  and  _419
REMARK  155  A    between atoms: _424  and  _426
REMARK  156  A    between atoms: _426  and  _427
REMARK  157  A    between atoms: _426  and  _429
REMARK  158  A    between atoms: _429  and  _430
REMARK  159  A    between atoms: _430  and  _431
REMARK  160  A    between atoms: _431  and  _432
REMARK                            x       y       z     vdW  Elec       q    Type
REMARK                         _______ _______ _______ _____ _____    ______ ____
ROOT
ATOM      1  O   HOH     1      -7.039   5.832   6.259  0.00  0.00    +0.000 OA
ENDROOT
TORSDOF 0
REMARK  Name = ../refined-set-2016/3ibn/3ibn_pocket.pdb
REMARK  160 active torsions:
REMARK  status: ('A' for Active; 'I' for Inactive)
REMARK    1  A    between atoms: _1  and  _3
REMARK    2  A    between atoms: _3  and  _4
REMARK    3  A    between atoms: _3  and  _6
REMARK    4  A    between atoms: _6  and  _7
REMARK    5  A    between atoms: _17  and  _19
REMARK    6  A    between atoms: _19  and  _20
REMARK    7  A    between atoms: _19  and  _22
REMARK    8  A    between atoms: _22  and  _23
REMARK    9  A    between atoms: _28  and  _29
REMARK   10  A    between atoms: _31  and  _33
REMARK   11  A    between atoms: _33  and  _34
REMARK   12  A    between atoms: _33  and  _36
REMARK   13  A    between atoms: _36  and  _37
REMARK   14  A    between atoms: _40  and  _41
REMARK   15  A    between atoms: _46  and  _48
REMARK   16  A    between atoms: _48  and  _49
REMARK   17  A    between atoms: _48  and  _51
REMARK   18  A    between atoms: _51  and  _52
REMARK   19  A    between atoms: _57  and  _59
REMARK   20  A    between atoms: _59  and  _60
REMARK   21  A    between atoms: _63  and  _65
REMARK   22  A    between atoms: _65  and  _66
REMARK   23  A    between atoms: _65  and  _68
REMARK   24  A    between atoms: _68  and  _69
REMARK   25  A    between atoms: _74  and  _76
REMARK   26  A    between atoms: _76  and  _77
REMARK   27  A    between atoms: _76  and  _79
REMARK   28  A    between atoms: _79  and  _80
REMARK   29  A    between atoms: _83  and  _85
REMARK   30  A    between atoms: _85  and  _86
REMARK   31  A    between atoms: _85  and  _88
REMARK   32  A    between atoms: _88  and  _89
REMARK   33  A    between atoms: _89  and  _90
REMARK   34  A    between atoms: _95  and  _97
REMARK   35  A    between atoms: _97  and  _98
REMARK   36  A    between atoms: _97  and  _100
REMARK   37  A    between atoms: _100  and  _101
REMARK   38  A    between atoms: _107  and  _109
REMARK   39  A    between atoms: _120  and  _123
REMARK   40  A    between atoms: _123  and  _124
REMARK   41  A    between atoms: _132  and  _133
REMARK   42  A    between atoms: _141  and  _143
REMARK   43  A    between atoms: _143  and  _144
REMARK   44  A    between atoms: _143  and  _146
REMARK   45  A    between atoms: _146  and  _147
REMARK   46  A    between atoms: _147  and  _148
REMARK   47  A    between atoms: _151  and  _153
REMARK   48  A    between atoms: _153  and  _154
REMARK   49  A    between atoms: _153  and  _156
REMARK   50  A    between atoms: _156  and  _157
REMARK   51  A    between atoms: _162  and  _164
REMARK   52  A    between atoms: _164  and  _165
REMARK   53  A    between atoms: _164  and  _167
REMARK   54  A    between atoms: _167  and  _168
REMARK   55  A    between atoms: _168  and  _169
REMARK   56  A    between atoms: _172  and  _174
REMARK   57  A    between atoms: _174  and  _175
REMARK   58  A    between atoms: _174  and  _177
REMARK   59  A    between atoms: _177  and  _178
REMARK   60  A    between atoms: _181  and  _183
REMARK   61  A    between atoms: _183  and  _184
REMARK   62  A    between atoms: _183  and  _186
REMARK   63  A    between atoms: _186  and  _187
REMARK   64  A    between atoms: _188  and  ZN_441
REMARK   65  A    between atoms: _192  and  _194
REMARK   66  A    between atoms: _194  and  _195
REMARK   67  A    between atoms: _194  and  _197
REMARK   68  A    between atoms: _197  and  _198
REMARK   69  A    between atoms: _201  and  _203
REMARK   70  A    between atoms: _203  and  _204
REMARK   71  A    between atoms: _203  and  _206
REMARK   72  A    between atoms: _209  and  _211
REMARK   73  A    between atoms: _211  and  _212
REMARK   74  A    between atoms: _211  and  _214
REMARK   75  A    between atoms: _214  and  _215
REMARK   76  A    between atoms: _220  and  _222
REMARK   77  A    between atoms: _222  and  _223
REMARK   78  A    between atoms: _222  and  _225
REMARK   79  A    between atoms: _225  and  _226
REMARK   80  A    between atoms: _229  and  _231
REMARK   81  A    between atoms: _231  and  _232
REMARK   82  A    between atoms: _231  and  _234
REMARK   83  A    between atoms: _234  and  _235
REMARK   84  A    between atoms: _241  and  _243
REMARK   85  A    between atoms: _243  and  _244
REMARK   86  A    between atoms: _246  and  _248
REMARK   87  A    between atoms: _248  and  _249
REMARK   88  A    between atoms: _248  and  _251
REMARK   89  A    between atoms: _251  and  _252
REMARK   90  A    between atoms: _252  and  _253
REMARK   91  A    between atoms: _253  and  _254
REMARK   92  A    between atoms: _254  and  _255
REMARK   93  A    between atoms: _259  and  _261
REMARK   94  A    between atoms: _261  and  _262
REMARK   95  A    between atoms: _265  and  _267
REMARK   96  A    between atoms: _267  and  _268
REMARK   97  A    between atoms: _267  and  _270
REMARK   98  A    between atoms: _273  and  _275
REMARK   99  A    between atoms: _275  and  _276
REMARK  100  A    between atoms: _275  and  _278
REMARK  101  A    between atoms: _278  and  _279
REMARK  102  A    between atoms: _279  and  _280
REMARK  103  A    between atoms: _285  and  _287
REMARK  104  A    between atoms: _287  and  _288
REMARK  105  A    between atoms: _287  and  _290
REMARK  106  A    between atoms: _290  and  _291
REMARK  107  A    between atoms: _294  and  _296
REMARK  108  A    between atoms: _296  and  _297
REMARK  109  A    between atoms: _300  and  _302
REMARK  110  A    between atoms: _302  and  _303
REMARK  111  A    between atoms: _302  and  _305
REMARK  112  A    between atoms: _308  and  _310
REMARK  113  A    between atoms: _310  and  _311
REMARK  114  A    between atoms: _310  and  _313
REMARK  115  A    between atoms: _313  and  _314
REMARK  116  A    between atoms: _317  and  _319
REMARK  117  A    between atoms: _319  and  _320
REMARK  118  A    between atoms: _322  and  _324
REMARK  119  A    between atoms: _324  and  _325
REMARK  120  A    between atoms: _324  and  _327
REMARK  121  A    between atoms: _327  and  _328
REMARK  122  A    between atoms: _330  and  _332
REMARK  123  A    between atoms: _332  and  _333
REMARK  124  A    between atoms: _332  and  _335
REMARK  125  A    between atoms: _335  and  _336
REMARK  126  A    between atoms: _339  and  _341
REMARK  127  A    between atoms: _341  and  _342
REMARK  128  A    between atoms: _341  and  _344
REMARK  129  A    between atoms: _344  and  _345
REMARK  130  A    between atoms: _348  and  _350
REMARK  131  A    between atoms: _350  and  _351
REMARK  132  A    between atoms: _350  and  _353
REMARK  133  A    between atoms: _353  and  _354
REMARK  134  A    between atoms: _358  and  _359
REMARK  135  A    between atoms: _365  and  _366
REMARK  136  A    between atoms: _371  and  _373
REMARK  137  A    between atoms: _373  and  _374
REMARK  138  A    between atoms: _373  and  _376
REMARK  139  A    between atoms: _376  and  _377
REMARK  140  A    between atoms: _380  and  _382
REMARK  141  A    between atoms: _382  and  _383
REMARK  142  A    between atoms: _382  and  _385
REMARK  143  A    between atoms: _385  and  _386
REMARK  144  A    between atoms: _389  and  _391
REMARK  145  A    between atoms: _391  and  _392
REMARK  146  A    between atoms: _391  and  _394
REMARK  147  A    between atoms: _397  and  _399
REMARK  148  A    between atoms: _399  and  _400
REMARK  149  A    between atoms: _399  and  _402
REMARK  150  A    between atoms: _402  and  _403
REMARK  151  A    between atoms: _413  and  _415
REMARK  152  A    between atoms: _415  and  _416
REMARK  153  A    between atoms: _415  and  _418
REMARK  154  A    between atoms: _418  and  _419
REMARK  155  A    between atoms: _424  and  _426
REMARK  156  A    between atoms: _426  and  _427
REMARK  157  A    between atoms: _426  and  _429
REMARK  158  A    between atoms: _429  and  _430
REMARK  159  A    between atoms: _430  and  _431
REMARK  160  A    between atoms: _431  and  _432
REMARK                            x       y       z     vdW  Elec       q    Type
REMARK                         _______ _______ _______ _____ _____    ______ ____
ROOT
ATOM      1  O   HOH     1      -1.113   2.065  11.214  0.00  0.00    +0.000 OA
ENDROOT
TORSDOF 0
REMARK  Name = ../refined-set-2016/3ibn/3ibn_pocket.pdb
REMARK  160 active torsions:
REMARK  status: ('A' for Active; 'I' for Inactive)
REMARK    1  A    between atoms: _1  and  _3
REMARK    2  A    between atoms: _3  and  _4
REMARK    3  A    between atoms: _3  and  _6
REMARK    4  A    between atoms: _6  and  _7
REMARK    5  A    between atoms: _17  and  _19
REMARK    6  A    between atoms: _19  and  _20
REMARK    7  A    between atoms: _19  and  _22
REMARK    8  A    between atoms: _22  and  _23
REMARK    9  A    between atoms: _28  and  _29
REMARK   10  A    between atoms: _31  and  _33
REMARK   11  A    between atoms: _33  and  _34
REMARK   12  A    between atoms: _33  and  _36
REMARK   13  A    between atoms: _36  and  _37
REMARK   14  A    between atoms: _40  and  _41
REMARK   15  A    between atoms: _46  and  _48
REMARK   16  A    between atoms: _48  and  _49
REMARK   17  A    between atoms: _48  and  _51
REMARK   18  A    between atoms: _51  and  _52
REMARK   19  A    between atoms: _57  and  _59
REMARK   20  A    between atoms: _59  and  _60
REMARK   21  A    between atoms: _63  and  _65
REMARK   22  A    between atoms: _65  and  _66
REMARK   23  A    between atoms: _65  and  _68
REMARK   24  A    between atoms: _68  and  _69
REMARK   25  A    between atoms: _74  and  _76
REMARK   26  A    between atoms: _76  and  _77
REMARK   27  A    between atoms: _76  and  _79
REMARK   28  A    between atoms: _79  and  _80
REMARK   29  A    between atoms: _83  and  _85
REMARK   30  A    between atoms: _85  and  _86
REMARK   31  A    between atoms: _85  and  _88
REMARK   32  A    between atoms: _88  and  _89
REMARK   33  A    between atoms: _89  and  _90
REMARK   34  A    between atoms: _95  and  _97
REMARK   35  A    between atoms: _97  and  _98
REMARK   36  A    between atoms: _97  and  _100
REMARK   37  A    between atoms: _100  and  _101
REMARK   38  A    between atoms: _107  and  _109
REMARK   39  A    between atoms: _120  and  _123
REMARK   40  A    between atoms: _123  and  _124
REMARK   41  A    between atoms: _132  and  _133
REMARK   42  A    between atoms: _141  and  _143
REMARK   43  A    between atoms: _143  and  _144
REMARK   44  A    between atoms: _143  and  _146
REMARK   45  A    between atoms: _146  and  _147
REMARK   46  A    between atoms: _147  and  _148
REMARK   47  A    between atoms: _151  and  _153
REMARK   48  A    between atoms: _153  and  _154
REMARK   49  A    between atoms: _153  and  _156
REMARK   50  A    between atoms: _156  and  _157
REMARK   51  A    between atoms: _162  and  _164
REMARK   52  A    between atoms: _164  and  _165
REMARK   53  A    between atoms: _164  and  _167
REMARK   54  A    between atoms: _167  and  _168
REMARK   55  A    between atoms: _168  and  _169
REMARK   56  A    between atoms: _172  and  _174
REMARK   57  A    between atoms: _174  and  _175
REMARK   58  A    between atoms: _174  and  _177
REMARK   59  A    between atoms: _177  and  _178
REMARK   60  A    between atoms: _181  and  _183
REMARK   61  A    between atoms: _183  and  _184
REMARK   62  A    between atoms: _183  and  _186
REMARK   63  A    between atoms: _186  and  _187
REMARK   64  A    between atoms: _188  and  ZN_441
REMARK   65  A    between atoms: _192  and  _194
REMARK   66  A    between atoms: _194  and  _195
REMARK   67  A    between atoms: _194  and  _197
REMARK   68  A    between atoms: _197  and  _198
REMARK   69  A    between atoms: _201  and  _203
REMARK   70  A    between atoms: _203  and  _204
REMARK   71  A    between atoms: _203  and  _206
REMARK   72  A    between atoms: _209  and  _211
REMARK   73  A    between atoms: _211  and  _212
REMARK   74  A    between atoms: _211  and  _214
REMARK   75  A    between atoms: _214  and  _215
REMARK   76  A    between atoms: _220  and  _222
REMARK   77  A    between atoms: _222  and  _223
REMARK   78  A    between atoms: _222  and  _225
REMARK   79  A    between atoms: _225  and  _226
REMARK   80  A    between atoms: _229  and  _231
REMARK   81  A    between atoms: _231  and  _232
REMARK   82  A    between atoms: _231  and  _234
REMARK   83  A    between atoms: _234  and  _235
REMARK   84  A    between atoms: _241  and  _243
REMARK   85  A    between atoms: _243  and  _244
REMARK   86  A    between atoms: _246  and  _248
REMARK   87  A    between atoms: _248  and  _249
REMARK   88  A    between atoms: _248  and  _251
REMARK   89  A    between atoms: _251  and  _252
REMARK   90  A    between atoms: _252  and  _253
REMARK   91  A    between atoms: _253  and  _254
REMARK   92  A    between atoms: _254  and  _255
REMARK   93  A    between atoms: _259  and  _261
REMARK   94  A    between atoms: _261  and  _262
REMARK   95  A    between atoms: _265  and  _267
REMARK   96  A    between atoms: _267  and  _268
REMARK   97  A    between atoms: _267  and  _270
REMARK   98  A    between atoms: _273  and  _275
REMARK   99  A    between atoms: _275  and  _276
REMARK  100  A    between atoms: _275  and  _278
REMARK  101  A    between atoms: _278  and  _279
REMARK  102  A    between atoms: _279  and  _280
REMARK  103  A    between atoms: _285  and  _287
REMARK  104  A    between atoms: _287  and  _288
REMARK  105  A    between atoms: _287  and  _290
REMARK  106  A    between atoms: _290  and  _291
REMARK  107  A    between atoms: _294  and  _296
REMARK  108  A    between atoms: _296  and  _297
REMARK  109  A    between atoms: _300  and  _302
REMARK  110  A    between atoms: _302  and  _303
REMARK  111  A    between atoms: _302  and  _305
REMARK  112  A    between atoms: _308  and  _310
REMARK  113  A    between atoms: _310  and  _311
REMARK  114  A    between atoms: _310  and  _313
REMARK  115  A    between atoms: _313  and  _314
REMARK  116  A    between atoms: _317  and  _319
REMARK  117  A    between atoms: _319  and  _320
REMARK  118  A    between atoms: _322  and  _324
REMARK  119  A    between atoms: _324  and  _325
REMARK  120  A    between atoms: _324  and  _327
REMARK  121  A    between atoms: _327  and  _328
REMARK  122  A    between atoms: _330  and  _332
REMARK  123  A    between atoms: _332  and  _333
REMARK  124  A    between atoms: _332  and  _335
REMARK  125  A    between atoms: _335  and  _336
REMARK  126  A    between atoms: _339  and  _341
REMARK  127  A    between atoms: _341  and  _342
REMARK  128  A    between atoms: _341  and  _344
REMARK  129  A    between atoms: _344  and  _345
REMARK  130  A    between atoms: _348  and  _350
REMARK  131  A    between atoms: _350  and  _351
REMARK  132  A    between atoms: _350  and  _353
REMARK  133  A    between atoms: _353  and  _354
REMARK  134  A    between atoms: _358  and  _359
REMARK  135  A    between atoms: _365  and  _366
REMARK  136  A    between atoms: _371  and  _373
REMARK  137  A    between atoms: _373  and  _374
REMARK  138  A    between atoms: _373  and  _376
REMARK  139  A    between atoms: _376  and  _377
REMARK  140  A    between atoms: _380  and  _382
REMARK  141  A    between atoms: _382  and  _383
REMARK  142  A    between atoms: _382  and  _385
REMARK  143  A    between atoms: _385  and  _386
REMARK  144  A    between atoms: _389  and  _391
REMARK  145  A    between atoms: _391  and  _392
REMARK  146  A    between atoms: _391  and  _394
REMARK  147  A    between atoms: _397  and  _399
REMARK  148  A    between atoms: _399  and  _400
REMARK  149  A    between atoms: _399  and  _402
REMARK  150  A    between atoms: _402  and  _403
REMARK  151  A    between atoms: _413  and  _415
REMARK  152  A    between atoms: _415  and  _416
REMARK  153  A    between atoms: _415  and  _418
REMARK  154  A    between atoms: _418  and  _419
REMARK  155  A    between atoms: _424  and  _426
REMARK  156  A    between atoms: _426  and  _427
REMARK  157  A    between atoms: _426  and  _429
REMARK  158  A    between atoms: _429  and  _430
REMARK  159  A    between atoms: _430  and  _431
REMARK  160  A    between atoms: _431  and  _432
REMARK                            x       y       z     vdW  Elec       q    Type
REMARK                         _______ _______ _______ _____ _____    ______ ____
ROOT
ATOM      1  O   HOH     1     -10.233  15.003  12.105  0.00  0.00    +0.000 OA
ENDROOT
TORSDOF 0
REMARK  Name = ../refined-set-2016/3ibn/3ibn_pocket.pdb
REMARK  160 active torsions:
REMARK  status: ('A' for Active; 'I' for Inactive)
REMARK    1  A    between atoms: _1  and  _3
REMARK    2  A    between atoms: _3  and  _4
REMARK    3  A    between atoms: _3  and  _6
REMARK    4  A    between atoms: _6  and  _7
REMARK    5  A    between atoms: _17  and  _19
REMARK    6  A    between atoms: _19  and  _20
REMARK    7  A    between atoms: _19  and  _22
REMARK    8  A    between atoms: _22  and  _23
REMARK    9  A    between atoms: _28  and  _29
REMARK   10  A    between atoms: _31  and  _33
REMARK   11  A    between atoms: _33  and  _34
REMARK   12  A    between atoms: _33  and  _36
REMARK   13  A    between atoms: _36  and  _37
REMARK   14  A    between atoms: _40  and  _41
REMARK   15  A    between atoms: _46  and  _48
REMARK   16  A    between atoms: _48  and  _49
REMARK   17  A    between atoms: _48  and  _51
REMARK   18  A    between atoms: _51  and  _52
REMARK   19  A    between atoms: _57  and  _59
REMARK   20  A    between atoms: _59  and  _60
REMARK   21  A    between atoms: _63  and  _65
REMARK   22  A    between atoms: _65  and  _66
REMARK   23  A    between atoms: _65  and  _68
REMARK   24  A    between atoms: _68  and  _69
REMARK   25  A    between atoms: _74  and  _76
REMARK   26  A    between atoms: _76  and  _77
REMARK   27  A    between atoms: _76  and  _79
REMARK   28  A    between atoms: _79  and  _80
REMARK   29  A    between atoms: _83  and  _85
REMARK   30  A    between atoms: _85  and  _86
REMARK   31  A    between atoms: _85  and  _88
REMARK   32  A    between atoms: _88  and  _89
REMARK   33  A    between atoms: _89  and  _90
REMARK   34  A    between atoms: _95  and  _97
REMARK   35  A    between atoms: _97  and  _98
REMARK   36  A    between atoms: _97  and  _100
REMARK   37  A    between atoms: _100  and  _101
REMARK   38  A    between atoms: _107  and  _109
REMARK   39  A    between atoms: _120  and  _123
REMARK   40  A    between atoms: _123  and  _124
REMARK   41  A    between atoms: _132  and  _133
REMARK   42  A    between atoms: _141  and  _143
REMARK   43  A    between atoms: _143  and  _144
REMARK   44  A    between atoms: _143  and  _146
REMARK   45  A    between atoms: _146  and  _147
REMARK   46  A    between atoms: _147  and  _148
REMARK   47  A    between atoms: _151  and  _153
REMARK   48  A    between atoms: _153  and  _154
REMARK   49  A    between atoms: _153  and  _156
REMARK   50  A    between atoms: _156  and  _157
REMARK   51  A    between atoms: _162  and  _164
REMARK   52  A    between atoms: _164  and  _165
REMARK   53  A    between atoms: _164  and  _167
REMARK   54  A    between atoms: _167  and  _168
REMARK   55  A    between atoms: _168  and  _169
REMARK   56  A    between atoms: _172  and  _174
REMARK   57  A    between atoms: _174  and  _175
REMARK   58  A    between atoms: _174  and  _177
REMARK   59  A    between atoms: _177  and  _178
REMARK   60  A    between atoms: _181  and  _183
REMARK   61  A    between atoms: _183  and  _184
REMARK   62  A    between atoms: _183  and  _186
REMARK   63  A    between atoms: _186  and  _187
REMARK   64  A    between atoms: _188  and  ZN_441
REMARK   65  A    between atoms: _192  and  _194
REMARK   66  A    between atoms: _194  and  _195
REMARK   67  A    between atoms: _194  and  _197
REMARK   68  A    between atoms: _197  and  _198
REMARK   69  A    between atoms: _201  and  _203
REMARK   70  A    between atoms: _203  and  _204
REMARK   71  A    between atoms: _203  and  _206
REMARK   72  A    between atoms: _209  and  _211
REMARK   73  A    between atoms: _211  and  _212
REMARK   74  A    between atoms: _211  and  _214
REMARK   75  A    between atoms: _214  and  _215
REMARK   76  A    between atoms: _220  and  _222
REMARK   77  A    between atoms: _222  and  _223
REMARK   78  A    between atoms: _222  and  _225
REMARK   79  A    between atoms: _225  and  _226
REMARK   80  A    between atoms: _229  and  _231
REMARK   81  A    between atoms: _231  and  _232
REMARK   82  A    between atoms: _231  and  _234
REMARK   83  A    between atoms: _234  and  _235
REMARK   84  A    between atoms: _241  and  _243
REMARK   85  A    between atoms: _243  and  _244
REMARK   86  A    between atoms: _246  and  _248
REMARK   87  A    between atoms: _248  and  _249
REMARK   88  A    between atoms: _248  and  _251
REMARK   89  A    between atoms: _251  and  _252
REMARK   90  A    between atoms: _252  and  _253
REMARK   91  A    between atoms: _253  and  _254
REMARK   92  A    between atoms: _254  and  _255
REMARK   93  A    between atoms: _259  and  _261
REMARK   94  A    between atoms: _261  and  _262
REMARK   95  A    between atoms: _265  and  _267
REMARK   96  A    between atoms: _267  and  _268
REMARK   97  A    between atoms: _267  and  _270
REMARK   98  A    between atoms: _273  and  _275
REMARK   99  A    between atoms: _275  and  _276
REMARK  100  A    between atoms: _275  and  _278
REMARK  101  A    between atoms: _278  and  _279
REMARK  102  A    between atoms: _279  and  _280
REMARK  103  A    between atoms: _285  and  _287
REMARK  104  A    between atoms: _287  and  _288
REMARK  105  A    between atoms: _287  and  _290
REMARK  106  A    between atoms: _290  and  _291
REMARK  107  A    between atoms: _294  and  _296
REMARK  108  A    between atoms: _296  and  _297
REMARK  109  A    between atoms: _300  and  _302
REMARK  110  A    between atoms: _302  and  _303
REMARK  111  A    between atoms: _302  and  _305
REMARK  112  A    between atoms: _308  and  _310
REMARK  113  A    between atoms: _310  and  _311
REMARK  114  A    between atoms: _310  and  _313
REMARK  115  A    between atoms: _313  and  _314
REMARK  116  A    between atoms: _317  and  _319
REMARK  117  A    between atoms: _319  and  _320
REMARK  118  A    between atoms: _322  and  _324
REMARK  119  A    between atoms: _324  and  _325
REMARK  120  A    between atoms: _324  and  _327
REMARK  121  A    between atoms: _327  and  _328
REMARK  122  A    between atoms: _330  and  _332
REMARK  123  A    between atoms: _332  and  _333
REMARK  124  A    between atoms: _332  and  _335
REMARK  125  A    between atoms: _335  and  _336
REMARK  126  A    between atoms: _339  and  _341
REMARK  127  A    between atoms: _341  and  _342
REMARK  128  A    between atoms: _341  and  _344
REMARK  129  A    between atoms: _344  and  _345
REMARK  130  A    between atoms: _348  and  _350
REMARK  131  A    between atoms: _350  and  _351
REMARK  132  A    between atoms: _350  and  _353
REMARK  133  A    between atoms: _353  and  _354
REMARK  134  A    between atoms: _358  and  _359
REMARK  135  A    between atoms: _365  and  _366
REMARK  136  A    between atoms: _371  and  _373
REMARK  137  A    between atoms: _373  and  _374
REMARK  138  A    between atoms: _373  and  _376
REMARK  139  A    between atoms: _376  and  _377
REMARK  140  A    between atoms: _380  and  _382
REMARK  141  A    between atoms: _382  and  _383
REMARK  142  A    between atoms: _382  and  _385
REMARK  143  A    between atoms: _385  and  _386
REMARK  144  A    between atoms: _389  and  _391
REMARK  145  A    between atoms: _391  and  _392
REMARK  146  A    between atoms: _391  and  _394
REMARK  147  A    between atoms: _397  and  _399
REMARK  148  A    between atoms: _399  and  _400
REMARK  149  A    between atoms: _399  and  _402
REMARK  150  A    between atoms: _402  and  _403
REMARK  151  A    between atoms: _413  and  _415
REMARK  152  A    between atoms: _415  and  _416
REMARK  153  A    between atoms: _415  and  _418
REMARK  154  A    between atoms: _418  and  _419
REMARK  155  A    between atoms: _424  and  _426
REMARK  156  A    between atoms: _426  and  _427
REMARK  157  A    between atoms: _426  and  _429
REMARK  158  A    between atoms: _429  and  _430
REMARK  159  A    between atoms: _430  and  _431
REMARK  160  A    between atoms: _431  and  _432
REMARK                            x       y       z     vdW  Elec       q    Type
REMARK                         _______ _______ _______ _____ _____    ______ ____
ROOT
ATOM      1  O   HOH     1      -5.114   1.182  10.697  0.00  0.00    +0.000 OA
ENDROOT
TORSDOF 0
REMARK  Name = ../refined-set-2016/3ibn/3ibn_pocket.pdb
REMARK  160 active torsions:
REMARK  status: ('A' for Active; 'I' for Inactive)
REMARK    1  A    between atoms: _1  and  _3
REMARK    2  A    between atoms: _3  and  _4
REMARK    3  A    between atoms: _3  and  _6
REMARK    4  A    between atoms: _6  and  _7
REMARK    5  A    between atoms: _17  and  _19
REMARK    6  A    between atoms: _19  and  _20
REMARK    7  A    between atoms: _19  and  _22
REMARK    8  A    between atoms: _22  and  _23
REMARK    9  A    between atoms: _28  and  _29
REMARK   10  A    between atoms: _31  and  _33
REMARK   11  A    between atoms: _33  and  _34
REMARK   12  A    between atoms: _33  and  _36
REMARK   13  A    between atoms: _36  and  _37
REMARK   14  A    between atoms: _40  and  _41
REMARK   15  A    between atoms: _46  and  _48
REMARK   16  A    between atoms: _48  and  _49
REMARK   17  A    between atoms: _48  and  _51
REMARK   18  A    between atoms: _51  and  _52
REMARK   19  A    between atoms: _57  and  _59
REMARK   20  A    between atoms: _59  and  _60
REMARK   21  A    between atoms: _63  and  _65
REMARK   22  A    between atoms: _65  and  _66
REMARK   23  A    between atoms: _65  and  _68
REMARK   24  A    between atoms: _68  and  _69
REMARK   25  A    between atoms: _74  and  _76
REMARK   26  A    between atoms: _76  and  _77
REMARK   27  A    between atoms: _76  and  _79
REMARK   28  A    between atoms: _79  and  _80
REMARK   29  A    between atoms: _83  and  _85
REMARK   30  A    between atoms: _85  and  _86
REMARK   31  A    between atoms: _85  and  _88
REMARK   32  A    between atoms: _88  and  _89
REMARK   33  A    between atoms: _89  and  _90
REMARK   34  A    between atoms: _95  and  _97
REMARK   35  A    between atoms: _97  and  _98
REMARK   36  A    between atoms: _97  and  _100
REMARK   37  A    between atoms: _100  and  _101
REMARK   38  A    between atoms: _107  and  _109
REMARK   39  A    between atoms: _120  and  _123
REMARK   40  A    between atoms: _123  and  _124
REMARK   41  A    between atoms: _132  and  _133
REMARK   42  A    between atoms: _141  and  _143
REMARK   43  A    between atoms: _143  and  _144
REMARK   44  A    between atoms: _143  and  _146
REMARK   45  A    between atoms: _146  and  _147
REMARK   46  A    between atoms: _147  and  _148
REMARK   47  A    between atoms: _151  and  _153
REMARK   48  A    between atoms: _153  and  _154
REMARK   49  A    between atoms: _153  and  _156
REMARK   50  A    between atoms: _156  and  _157
REMARK   51  A    between atoms: _162  and  _164
REMARK   52  A    between atoms: _164  and  _165
REMARK   53  A    between atoms: _164  and  _167
REMARK   54  A    between atoms: _167  and  _168
REMARK   55  A    between atoms: _168  and  _169
REMARK   56  A    between atoms: _172  and  _174
REMARK   57  A    between atoms: _174  and  _175
REMARK   58  A    between atoms: _174  and  _177
REMARK   59  A    between atoms: _177  and  _178
REMARK   60  A    between atoms: _181  and  _183
REMARK   61  A    between atoms: _183  and  _184
REMARK   62  A    between atoms: _183  and  _186
REMARK   63  A    between atoms: _186  and  _187
REMARK   64  A    between atoms: _188  and  ZN_441
REMARK   65  A    between atoms: _192  and  _194
REMARK   66  A    between atoms: _194  and  _195
REMARK   67  A    between atoms: _194  and  _197
REMARK   68  A    between atoms: _197  and  _198
REMARK   69  A    between atoms: _201  and  _203
REMARK   70  A    between atoms: _203  and  _204
REMARK   71  A    between atoms: _203  and  _206
REMARK   72  A    between atoms: _209  and  _211
REMARK   73  A    between atoms: _211  and  _212
REMARK   74  A    between atoms: _211  and  _214
REMARK   75  A    between atoms: _214  and  _215
REMARK   76  A    between atoms: _220  and  _222
REMARK   77  A    between atoms: _222  and  _223
REMARK   78  A    between atoms: _222  and  _225
REMARK   79  A    between atoms: _225  and  _226
REMARK   80  A    between atoms: _229  and  _231
REMARK   81  A    between atoms: _231  and  _232
REMARK   82  A    between atoms: _231  and  _234
REMARK   83  A    between atoms: _234  and  _235
REMARK   84  A    between atoms: _241  and  _243
REMARK   85  A    between atoms: _243  and  _244
REMARK   86  A    between atoms: _246  and  _248
REMARK   87  A    between atoms: _248  and  _249
REMARK   88  A    between atoms: _248  and  _251
REMARK   89  A    between atoms: _251  and  _252
REMARK   90  A    between atoms: _252  and  _253
REMARK   91  A    between atoms: _253  and  _254
REMARK   92  A    between atoms: _254  and  _255
REMARK   93  A    between atoms: _259  and  _261
REMARK   94  A    between atoms: _261  and  _262
REMARK   95  A    between atoms: _265  and  _267
REMARK   96  A    between atoms: _267  and  _268
REMARK   97  A    between atoms: _267  and  _270
REMARK   98  A    between atoms: _273  and  _275
REMARK   99  A    between atoms: _275  and  _276
REMARK  100  A    between atoms: _275  and  _278
REMARK  101  A    between atoms: _278  and  _279
REMARK  102  A    between atoms: _279  and  _280
REMARK  103  A    between atoms: _285  and  _287
REMARK  104  A    between atoms: _287  and  _288
REMARK  105  A    between atoms: _287  and  _290
REMARK  106  A    between atoms: _290  and  _291
REMARK  107  A    between atoms: _294  and  _296
REMARK  108  A    between atoms: _296  and  _297
REMARK  109  A    between atoms: _300  and  _302
REMARK  110  A    between atoms: _302  and  _303
REMARK  111  A    between atoms: _302  and  _305
REMARK  112  A    between atoms: _308  and  _310
REMARK  113  A    between atoms: _310  and  _311
REMARK  114  A    between atoms: _310  and  _313
REMARK  115  A    between atoms: _313  and  _314
REMARK  116  A    between atoms: _317  and  _319
REMARK  117  A    between atoms: _319  and  _320
REMARK  118  A    between atoms: _322  and  _324
REMARK  119  A    between atoms: _324  and  _325
REMARK  120  A    between atoms: _324  and  _327
REMARK  121  A    between atoms: _327  and  _328
REMARK  122  A    between atoms: _330  and  _332
REMARK  123  A    between atoms: _332  and  _333
REMARK  124  A    between atoms: _332  and  _335
REMARK  125  A    between atoms: _335  and  _336
REMARK  126  A    between atoms: _339  and  _341
REMARK  127  A    between atoms: _341  and  _342
REMARK  128  A    between atoms: _341  and  _344
REMARK  129  A    between atoms: _344  and  _345
REMARK  130  A    between atoms: _348  and  _350
REMARK  131  A    between atoms: _350  and  _351
REMARK  132  A    between atoms: _350  and  _353
REMARK  133  A    between atoms: _353  and  _354
REMARK  134  A    between atoms: _358  and  _359
REMARK  135  A    between atoms: _365  and  _366
REMARK  136  A    between atoms: _371  and  _373
REMARK  137  A    between atoms: _373  and  _374
REMARK  138  A    between atoms: _373  and  _376
REMARK  139  A    between atoms: _376  and  _377
REMARK  140  A    between atoms: _380  and  _382
REMARK  141  A    between atoms: _382  and  _383
REMARK  142  A    between atoms: _382  and  _385
REMARK  143  A    between atoms: _385  and  _386
REMARK  144  A    between atoms: _389  and  _391
REMARK  145  A    between atoms: _391  and  _392
REMARK  146  A    between atoms: _391  and  _394
REMARK  147  A    between atoms: _397  and  _399
REMARK  148  A    between atoms: _399  and  _400
REMARK  149  A    between atoms: _399  and  _402
REMARK  150  A    between atoms: _402  and  _403
REMARK  151  A    between atoms: _413  and  _415
REMARK  152  A    between atoms: _415  and  _416
REMARK  153  A    between atoms: _415  and  _418
REMARK  154  A    between atoms: _418  and  _419
REMARK  155  A    between atoms: _424  and  _426
REMARK  156  A    between atoms: _426  and  _427
REMARK  157  A    between atoms: _426  and  _429
REMARK  158  A    between atoms: _429  and  _430
REMARK  159  A    between atoms: _430  and  _431
REMARK  160  A    between atoms: _431  and  _432
REMARK                            x       y       z     vdW  Elec       q    Type
REMARK                         _______ _______ _______ _____ _____    ______ ____
ROOT
ATOM      1  O   HOH     1      -4.323   3.459  10.464  0.00  0.00    +0.000 OA
ENDROOT
TORSDOF 0
REMARK  Name = ../refined-set-2016/3ibn/3ibn_pocket.pdb
REMARK  160 active torsions:
REMARK  status: ('A' for Active; 'I' for Inactive)
REMARK    1  A    between atoms: _1  and  _3
REMARK    2  A    between atoms: _3  and  _4
REMARK    3  A    between atoms: _3  and  _6
REMARK    4  A    between atoms: _6  and  _7
REMARK    5  A    between atoms: _17  and  _19
REMARK    6  A    between atoms: _19  and  _20
REMARK    7  A    between atoms: _19  and  _22
REMARK    8  A    between atoms: _22  and  _23
REMARK    9  A    between atoms: _28  and  _29
REMARK   10  A    between atoms: _31  and  _33
REMARK   11  A    between atoms: _33  and  _34
REMARK   12  A    between atoms: _33  and  _36
REMARK   13  A    between atoms: _36  and  _37
REMARK   14  A    between atoms: _40  and  _41
REMARK   15  A    between atoms: _46  and  _48
REMARK   16  A    between atoms: _48  and  _49
REMARK   17  A    between atoms: _48  and  _51
REMARK   18  A    between atoms: _51  and  _52
REMARK   19  A    between atoms: _57  and  _59
REMARK   20  A    between atoms: _59  and  _60
REMARK   21  A    between atoms: _63  and  _65
REMARK   22  A    between atoms: _65  and  _66
REMARK   23  A    between atoms: _65  and  _68
REMARK   24  A    between atoms: _68  and  _69
REMARK   25  A    between atoms: _74  and  _76
REMARK   26  A    between atoms: _76  and  _77
REMARK   27  A    between atoms: _76  and  _79
REMARK   28  A    between atoms: _79  and  _80
REMARK   29  A    between atoms: _83  and  _85
REMARK   30  A    between atoms: _85  and  _86
REMARK   31  A    between atoms: _85  and  _88
REMARK   32  A    between atoms: _88  and  _89
REMARK   33  A    between atoms: _89  and  _90
REMARK   34  A    between atoms: _95  and  _97
REMARK   35  A    between atoms: _97  and  _98
REMARK   36  A    between atoms: _97  and  _100
REMARK   37  A    between atoms: _100  and  _101
REMARK   38  A    between atoms: _107  and  _109
REMARK   39  A    between atoms: _120  and  _123
REMARK   40  A    between atoms: _123  and  _124
REMARK   41  A    between atoms: _132  and  _133
REMARK   42  A    between atoms: _141  and  _143
REMARK   43  A    between atoms: _143  and  _144
REMARK   44  A    between atoms: _143  and  _146
REMARK   45  A    between atoms: _146  and  _147
REMARK   46  A    between atoms: _147  and  _148
REMARK   47  A    between atoms: _151  and  _153
REMARK   48  A    between atoms: _153  and  _154
REMARK   49  A    between atoms: _153  and  _156
REMARK   50  A    between atoms: _156  and  _157
REMARK   51  A    between atoms: _162  and  _164
REMARK   52  A    between atoms: _164  and  _165
REMARK   53  A    between atoms: _164  and  _167
REMARK   54  A    between atoms: _167  and  _168
REMARK   55  A    between atoms: _168  and  _169
REMARK   56  A    between atoms: _172  and  _174
REMARK   57  A    between atoms: _174  and  _175
REMARK   58  A    between atoms: _174  and  _177
REMARK   59  A    between atoms: _177  and  _178
REMARK   60  A    between atoms: _181  and  _183
REMARK   61  A    between atoms: _183  and  _184
REMARK   62  A    between atoms: _183  and  _186
REMARK   63  A    between atoms: _186  and  _187
REMARK   64  A    between atoms: _188  and  ZN_441
REMARK   65  A    between atoms: _192  and  _194
REMARK   66  A    between atoms: _194  and  _195
REMARK   67  A    between atoms: _194  and  _197
REMARK   68  A    between atoms: _197  and  _198
REMARK   69  A    between atoms: _201  and  _203
REMARK   70  A    between atoms: _203  and  _204
REMARK   71  A    between atoms: _203  and  _206
REMARK   72  A    between atoms: _209  and  _211
REMARK   73  A    between atoms: _211  and  _212
REMARK   74  A    between atoms: _211  and  _214
REMARK   75  A    between atoms: _214  and  _215
REMARK   76  A    between atoms: _220  and  _222
REMARK   77  A    between atoms: _222  and  _223
REMARK   78  A    between atoms: _222  and  _225
REMARK   79  A    between atoms: _225  and  _226
REMARK   80  A    between atoms: _229  and  _231
REMARK   81  A    between atoms: _231  and  _232
REMARK   82  A    between atoms: _231  and  _234
REMARK   83  A    between atoms: _234  and  _235
REMARK   84  A    between atoms: _241  and  _243
REMARK   85  A    between atoms: _243  and  _244
REMARK   86  A    between atoms: _246  and  _248
REMARK   87  A    between atoms: _248  and  _249
REMARK   88  A    between atoms: _248  and  _251
REMARK   89  A    between atoms: _251  and  _252
REMARK   90  A    between atoms: _252  and  _253
REMARK   91  A    between atoms: _253  and  _254
REMARK   92  A    between atoms: _254  and  _255
REMARK   93  A    between atoms: _259  and  _261
REMARK   94  A    between atoms: _261  and  _262
REMARK   95  A    between atoms: _265  and  _267
REMARK   96  A    between atoms: _267  and  _268
REMARK   97  A    between atoms: _267  and  _270
REMARK   98  A    between atoms: _273  and  _275
REMARK   99  A    between atoms: _275  and  _276
REMARK  100  A    between atoms: _275  and  _278
REMARK  101  A    between atoms: _278  and  _279
REMARK  102  A    between atoms: _279  and  _280
REMARK  103  A    between atoms: _285  and  _287
REMARK  104  A    between atoms: _287  and  _288
REMARK  105  A    between atoms: _287  and  _290
REMARK  106  A    between atoms: _290  and  _291
REMARK  107  A    between atoms: _294  and  _296
REMARK  108  A    between atoms: _296  and  _297
REMARK  109  A    between atoms: _300  and  _302
REMARK  110  A    between atoms: _302  and  _303
REMARK  111  A    between atoms: _302  and  _305
REMARK  112  A    between atoms: _308  and  _310
REMARK  113  A    between atoms: _310  and  _311
REMARK  114  A    between atoms: _310  and  _313
REMARK  115  A    between atoms: _313  and  _314
REMARK  116  A    between atoms: _317  and  _319
REMARK  117  A    between atoms: _319  and  _320
REMARK  118  A    between atoms: _322  and  _324
REMARK  119  A    between atoms: _324  and  _325
REMARK  120  A    between atoms: _324  and  _327
REMARK  121  A    between atoms: _327  and  _328
REMARK  122  A    between atoms: _330  and  _332
REMARK  123  A    between atoms: _332  and  _333
REMARK  124  A    between atoms: _332  and  _335
REMARK  125  A    between atoms: _335  and  _336
REMARK  126  A    between atoms: _339  and  _341
REMARK  127  A    between atoms: _341  and  _342
REMARK  128  A    between atoms: _341  and  _344
REMARK  129  A    between atoms: _344  and  _345
REMARK  130  A    between atoms: _348  and  _350
REMARK  131  A    between atoms: _350  and  _351
REMARK  132  A    between atoms: _350  and  _353
REMARK  133  A    between atoms: _353  and  _354
REMARK  134  A    between atoms: _358  and  _359
REMARK  135  A    between atoms: _365  and  _366
REMARK  136  A    between atoms: _371  and  _373
REMARK  137  A    between atoms: _373  and  _374
REMARK  138  A    between atoms: _373  and  _376
REMARK  139  A    between atoms: _376  and  _377
REMARK  140  A    between atoms: _380  and  _382
REMARK  141  A    between atoms: _382  and  _383
REMARK  142  A    between atoms: _382  and  _385
REMARK  143  A    between atoms: _385  and  _386
REMARK  144  A    between atoms: _389  and  _391
REMARK  145  A    between atoms: _391  and  _392
REMARK  146  A    between atoms: _391  and  _394
REMARK  147  A    between atoms: _397  and  _399
REMARK  148  A    between atoms: _399  and  _400
REMARK  149  A    between atoms: _399  and  _402
REMARK  150  A    between atoms: _402  and  _403
REMARK  151  A    between atoms: _413  and  _415
REMARK  152  A    between atoms: _415  and  _416
REMARK  153  A    between atoms: _415  and  _418
REMARK  154  A    between atoms: _418  and  _419
REMARK  155  A    between atoms: _424  and  _426
REMARK  156  A    between atoms: _426  and  _427
REMARK  157  A    between atoms: _426  and  _429
REMARK  158  A    between atoms: _429  and  _430
REMARK  159  A    between atoms: _430  and  _431
REMARK  160  A    between atoms: _431  and  _432
REMARK                            x       y       z     vdW  Elec       q    Type
REMARK                         _______ _______ _______ _____ _____    ______ ____
ROOT
ATOM      1  O   HOH     1      -8.464   7.641   7.701  0.00  0.00    +0.000 OA
ENDROOT
TORSDOF 0
REMARK  Name = ../refined-set-2016/3ibn/3ibn_pocket.pdb
REMARK  160 active torsions:
REMARK  status: ('A' for Active; 'I' for Inactive)
REMARK    1  A    between atoms: _1  and  _3
REMARK    2  A    between atoms: _3  and  _4
REMARK    3  A    between atoms: _3  and  _6
REMARK    4  A    between atoms: _6  and  _7
REMARK    5  A    between atoms: _17  and  _19
REMARK    6  A    between atoms: _19  and  _20
REMARK    7  A    between atoms: _19  and  _22
REMARK    8  A    between atoms: _22  and  _23
REMARK    9  A    between atoms: _28  and  _29
REMARK   10  A    between atoms: _31  and  _33
REMARK   11  A    between atoms: _33  and  _34
REMARK   12  A    between atoms: _33  and  _36
REMARK   13  A    between atoms: _36  and  _37
REMARK   14  A    between atoms: _40  and  _41
REMARK   15  A    between atoms: _46  and  _48
REMARK   16  A    between atoms: _48  and  _49
REMARK   17  A    between atoms: _48  and  _51
REMARK   18  A    between atoms: _51  and  _52
REMARK   19  A    between atoms: _57  and  _59
REMARK   20  A    between atoms: _59  and  _60
REMARK   21  A    between atoms: _63  and  _65
REMARK   22  A    between atoms: _65  and  _66
REMARK   23  A    between atoms: _65  and  _68
REMARK   24  A    between atoms: _68  and  _69
REMARK   25  A    between atoms: _74  and  _76
REMARK   26  A    between atoms: _76  and  _77
REMARK   27  A    between atoms: _76  and  _79
REMARK   28  A    between atoms: _79  and  _80
REMARK   29  A    between atoms: _83  and  _85
REMARK   30  A    between atoms: _85  and  _86
REMARK   31  A    between atoms: _85  and  _88
REMARK   32  A    between atoms: _88  and  _89
REMARK   33  A    between atoms: _89  and  _90
REMARK   34  A    between atoms: _95  and  _97
REMARK   35  A    between atoms: _97  and  _98
REMARK   36  A    between atoms: _97  and  _100
REMARK   37  A    between atoms: _100  and  _101
REMARK   38  A    between atoms: _107  and  _109
REMARK   39  A    between atoms: _120  and  _123
REMARK   40  A    between atoms: _123  and  _124
REMARK   41  A    between atoms: _132  and  _133
REMARK   42  A    between atoms: _141  and  _143
REMARK   43  A    between atoms: _143  and  _144
REMARK   44  A    between atoms: _143  and  _146
REMARK   45  A    between atoms: _146  and  _147
REMARK   46  A    between atoms: _147  and  _148
REMARK   47  A    between atoms: _151  and  _153
REMARK   48  A    between atoms: _153  and  _154
REMARK   49  A    between atoms: _153  and  _156
REMARK   50  A    between atoms: _156  and  _157
REMARK   51  A    between atoms: _162  and  _164
REMARK   52  A    between atoms: _164  and  _165
REMARK   53  A    between atoms: _164  and  _167
REMARK   54  A    between atoms: _167  and  _168
REMARK   55  A    between atoms: _168  and  _169
REMARK   56  A    between atoms: _172  and  _174
REMARK   57  A    between atoms: _174  and  _175
REMARK   58  A    between atoms: _174  and  _177
REMARK   59  A    between atoms: _177  and  _178
REMARK   60  A    between atoms: _181  and  _183
REMARK   61  A    between atoms: _183  and  _184
REMARK   62  A    between atoms: _183  and  _186
REMARK   63  A    between atoms: _186  and  _187
REMARK   64  A    between atoms: _188  and  ZN_441
REMARK   65  A    between atoms: _192  and  _194
REMARK   66  A    between atoms: _194  and  _195
REMARK   67  A    between atoms: _194  and  _197
REMARK   68  A    between atoms: _197  and  _198
REMARK   69  A    between atoms: _201  and  _203
REMARK   70  A    between atoms: _203  and  _204
REMARK   71  A    between atoms: _203  and  _206
REMARK   72  A    between atoms: _209  and  _211
REMARK   73  A    between atoms: _211  and  _212
REMARK   74  A    between atoms: _211  and  _214
REMARK   75  A    between atoms: _214  and  _215
REMARK   76  A    between atoms: _220  and  _222
REMARK   77  A    between atoms: _222  and  _223
REMARK   78  A    between atoms: _222  and  _225
REMARK   79  A    between atoms: _225  and  _226
REMARK   80  A    between atoms: _229  and  _231
REMARK   81  A    between atoms: _231  and  _232
REMARK   82  A    between atoms: _231  and  _234
REMARK   83  A    between atoms: _234  and  _235
REMARK   84  A    between atoms: _241  and  _243
REMARK   85  A    between atoms: _243  and  _244
REMARK   86  A    between atoms: _246  and  _248
REMARK   87  A    between atoms: _248  and  _249
REMARK   88  A    between atoms: _248  and  _251
REMARK   89  A    between atoms: _251  and  _252
REMARK   90  A    between atoms: _252  and  _253
REMARK   91  A    between atoms: _253  and  _254
REMARK   92  A    between atoms: _254  and  _255
REMARK   93  A    between atoms: _259  and  _261
REMARK   94  A    between atoms: _261  and  _262
REMARK   95  A    between atoms: _265  and  _267
REMARK   96  A    between atoms: _267  and  _268
REMARK   97  A    between atoms: _267  and  _270
REMARK   98  A    between atoms: _273  and  _275
REMARK   99  A    between atoms: _275  and  _276
REMARK  100  A    between atoms: _275  and  _278
REMARK  101  A    between atoms: _278  and  _279
REMARK  102  A    between atoms: _279  and  _280
REMARK  103  A    between atoms: _285  and  _287
REMARK  104  A    between atoms: _287  and  _288
REMARK  105  A    between atoms: _287  and  _290
REMARK  106  A    between atoms: _290  and  _291
REMARK  107  A    between atoms: _294  and  _296
REMARK  108  A    between atoms: _296  and  _297
REMARK  109  A    between atoms: _300  and  _302
REMARK  110  A    between atoms: _302  and  _303
REMARK  111  A    between atoms: _302  and  _305
REMARK  112  A    between atoms: _308  and  _310
REMARK  113  A    between atoms: _310  and  _311
REMARK  114  A    between atoms: _310  and  _313
REMARK  115  A    between atoms: _313  and  _314
REMARK  116  A    between atoms: _317  and  _319
REMARK  117  A    between atoms: _319  and  _320
REMARK  118  A    between atoms: _322  and  _324
REMARK  119  A    between atoms: _324  and  _325
REMARK  120  A    between atoms: _324  and  _327
REMARK  121  A    between atoms: _327  and  _328
REMARK  122  A    between atoms: _330  and  _332
REMARK  123  A    between atoms: _332  and  _333
REMARK  124  A    between atoms: _332  and  _335
REMARK  125  A    between atoms: _335  and  _336
REMARK  126  A    between atoms: _339  and  _341
REMARK  127  A    between atoms: _341  and  _342
REMARK  128  A    between atoms: _341  and  _344
REMARK  129  A    between atoms: _344  and  _345
REMARK  130  A    between atoms: _348  and  _350
REMARK  131  A    between atoms: _350  and  _351
REMARK  132  A    between atoms: _350  and  _353
REMARK  133  A    between atoms: _353  and  _354
REMARK  134  A    between atoms: _358  and  _359
REMARK  135  A    between atoms: _365  and  _366
REMARK  136  A    between atoms: _371  and  _373
REMARK  137  A    between atoms: _373  and  _374
REMARK  138  A    between atoms: _373  and  _376
REMARK  139  A    between atoms: _376  and  _377
REMARK  140  A    between atoms: _380  and  _382
REMARK  141  A    between atoms: _382  and  _383
REMARK  142  A    between atoms: _382  and  _385
REMARK  143  A    between atoms: _385  and  _386
REMARK  144  A    between atoms: _389  and  _391
REMARK  145  A    between atoms: _391  and  _392
REMARK  146  A    between atoms: _391  and  _394
REMARK  147  A    between atoms: _397  and  _399
REMARK  148  A    between atoms: _399  and  _400
REMARK  149  A    between atoms: _399  and  _402
REMARK  150  A    between atoms: _402  and  _403
REMARK  151  A    between atoms: _413  and  _415
REMARK  152  A    between atoms: _415  and  _416
REMARK  153  A    between atoms: _415  and  _418
REMARK  154  A    between atoms: _418  and  _419
REMARK  155  A    between atoms: _424  and  _426
REMARK  156  A    between atoms: _426  and  _427
REMARK  157  A    between atoms: _426  and  _429
REMARK  158  A    between atoms: _429  and  _430
REMARK  159  A    between atoms: _430  and  _431
REMARK  160  A    between atoms: _431  and  _432
REMARK                            x       y       z     vdW  Elec       q    Type
REMARK                         _______ _______ _______ _____ _____    ______ ____
ROOT
ATOM      1  O   HOH     1      -0.596  14.500  15.609  0.00  0.00    +0.000 OA
ENDROOT
TORSDOF 0
REMARK  Name = ../refined-set-2016/3ibn/3ibn_pocket.pdb
REMARK  160 active torsions:
REMARK  status: ('A' for Active; 'I' for Inactive)
REMARK    1  A    between atoms: _1  and  _3
REMARK    2  A    between atoms: _3  and  _4
REMARK    3  A    between atoms: _3  and  _6
REMARK    4  A    between atoms: _6  and  _7
REMARK    5  A    between atoms: _17  and  _19
REMARK    6  A    between atoms: _19  and  _20
REMARK    7  A    between atoms: _19  and  _22
REMARK    8  A    between atoms: _22  and  _23
REMARK    9  A    between atoms: _28  and  _29
REMARK   10  A    between atoms: _31  and  _33
REMARK   11  A    between atoms: _33  and  _34
REMARK   12  A    between atoms: _33  and  _36
REMARK   13  A    between atoms: _36  and  _37
REMARK   14  A    between atoms: _40  and  _41
REMARK   15  A    between atoms: _46  and  _48
REMARK   16  A    between atoms: _48  and  _49
REMARK   17  A    between atoms: _48  and  _51
REMARK   18  A    between atoms: _51  and  _52
REMARK   19  A    between atoms: _57  and  _59
REMARK   20  A    between atoms: _59  and  _60
REMARK   21  A    between atoms: _63  and  _65
REMARK   22  A    between atoms: _65  and  _66
REMARK   23  A    between atoms: _65  and  _68
REMARK   24  A    between atoms: _68  and  _69
REMARK   25  A    between atoms: _74  and  _76
REMARK   26  A    between atoms: _76  and  _77
REMARK   27  A    between atoms: _76  and  _79
REMARK   28  A    between atoms: _79  and  _80
REMARK   29  A    between atoms: _83  and  _85
REMARK   30  A    between atoms: _85  and  _86
REMARK   31  A    between atoms: _85  and  _88
REMARK   32  A    between atoms: _88  and  _89
REMARK   33  A    between atoms: _89  and  _90
REMARK   34  A    between atoms: _95  and  _97
REMARK   35  A    between atoms: _97  and  _98
REMARK   36  A    between atoms: _97  and  _100
REMARK   37  A    between atoms: _100  and  _101
REMARK   38  A    between atoms: _107  and  _109
REMARK   39  A    between atoms: _120  and  _123
REMARK   40  A    between atoms: _123  and  _124
REMARK   41  A    between atoms: _132  and  _133
REMARK   42  A    between atoms: _141  and  _143
REMARK   43  A    between atoms: _143  and  _144
REMARK   44  A    between atoms: _143  and  _146
REMARK   45  A    between atoms: _146  and  _147
REMARK   46  A    between atoms: _147  and  _148
REMARK   47  A    between atoms: _151  and  _153
REMARK   48  A    between atoms: _153  and  _154
REMARK   49  A    between atoms: _153  and  _156
REMARK   50  A    between atoms: _156  and  _157
REMARK   51  A    between atoms: _162  and  _164
REMARK   52  A    between atoms: _164  and  _165
REMARK   53  A    between atoms: _164  and  _167
REMARK   54  A    between atoms: _167  and  _168
REMARK   55  A    between atoms: _168  and  _169
REMARK   56  A    between atoms: _172  and  _174
REMARK   57  A    between atoms: _174  and  _175
REMARK   58  A    between atoms: _174  and  _177
REMARK   59  A    between atoms: _177  and  _178
REMARK   60  A    between atoms: _181  and  _183
REMARK   61  A    between atoms: _183  and  _184
REMARK   62  A    between atoms: _183  and  _186
REMARK   63  A    between atoms: _186  and  _187
REMARK   64  A    between atoms: _188  and  ZN_441
REMARK   65  A    between atoms: _192  and  _194
REMARK   66  A    between atoms: _194  and  _195
REMARK   67  A    between atoms: _194  and  _197
REMARK   68  A    between atoms: _197  and  _198
REMARK   69  A    between atoms: _201  and  _203
REMARK   70  A    between atoms: _203  and  _204
REMARK   71  A    between atoms: _203  and  _206
REMARK   72  A    between atoms: _209  and  _211
REMARK   73  A    between atoms: _211  and  _212
REMARK   74  A    between atoms: _211  and  _214
REMARK   75  A    between atoms: _214  and  _215
REMARK   76  A    between atoms: _220  and  _222
REMARK   77  A    between atoms: _222  and  _223
REMARK   78  A    between atoms: _222  and  _225
REMARK   79  A    between atoms: _225  and  _226
REMARK   80  A    between atoms: _229  and  _231
REMARK   81  A    between atoms: _231  and  _232
REMARK   82  A    between atoms: _231  and  _234
REMARK   83  A    between atoms: _234  and  _235
REMARK   84  A    between atoms: _241  and  _243
REMARK   85  A    between atoms: _243  and  _244
REMARK   86  A    between atoms: _246  and  _248
REMARK   87  A    between atoms: _248  and  _249
REMARK   88  A    between atoms: _248  and  _251
REMARK   89  A    between atoms: _251  and  _252
REMARK   90  A    between atoms: _252  and  _253
REMARK   91  A    between atoms: _253  and  _254
REMARK   92  A    between atoms: _254  and  _255
REMARK   93  A    between atoms: _259  and  _261
REMARK   94  A    between atoms: _261  and  _262
REMARK   95  A    between atoms: _265  and  _267
REMARK   96  A    between atoms: _267  and  _268
REMARK   97  A    between atoms: _267  and  _270
REMARK   98  A    between atoms: _273  and  _275
REMARK   99  A    between atoms: _275  and  _276
REMARK  100  A    between atoms: _275  and  _278
REMARK  101  A    between atoms: _278  and  _279
REMARK  102  A    between atoms: _279  and  _280
REMARK  103  A    between atoms: _285  and  _287
REMARK  104  A    between atoms: _287  and  _288
REMARK  105  A    between atoms: _287  and  _290
REMARK  106  A    between atoms: _290  and  _291
REMARK  107  A    between atoms: _294  and  _296
REMARK  108  A    between atoms: _296  and  _297
REMARK  109  A    between atoms: _300  and  _302
REMARK  110  A    between atoms: _302  and  _303
REMARK  111  A    between atoms: _302  and  _305
REMARK  112  A    between atoms: _308  and  _310
REMARK  113  A    between atoms: _310  and  _311
REMARK  114  A    between atoms: _310  and  _313
REMARK  115  A    between atoms: _313  and  _314
REMARK  116  A    between atoms: _317  and  _319
REMARK  117  A    between atoms: _319  and  _320
REMARK  118  A    between atoms: _322  and  _324
REMARK  119  A    between atoms: _324  and  _325
REMARK  120  A    between atoms: _324  and  _327
REMARK  121  A    between atoms: _327  and  _328
REMARK  122  A    between atoms: _330  and  _332
REMARK  123  A    between atoms: _332  and  _333
REMARK  124  A    between atoms: _332  and  _335
REMARK  125  A    between atoms: _335  and  _336
REMARK  126  A    between atoms: _339  and  _341
REMARK  127  A    between atoms: _341  and  _342
REMARK  128  A    between atoms: _341  and  _344
REMARK  129  A    between atoms: _344  and  _345
REMARK  130  A    between atoms: _348  and  _350
REMARK  131  A    between atoms: _350  and  _351
REMARK  132  A    between atoms: _350  and  _353
REMARK  133  A    between atoms: _353  and  _354
REMARK  134  A    between atoms: _358  and  _359
REMARK  135  A    between atoms: _365  and  _366
REMARK  136  A    between atoms: _371  and  _373
REMARK  137  A    between atoms: _373  and  _374
REMARK  138  A    between atoms: _373  and  _376
REMARK  139  A    between atoms: _376  and  _377
REMARK  140  A    between atoms: _380  and  _382
REMARK  141  A    between atoms: _382  and  _383
REMARK  142  A    between atoms: _382  and  _385
REMARK  143  A    between atoms: _385  and  _386
REMARK  144  A    between atoms: _389  and  _391
REMARK  145  A    between atoms: _391  and  _392
REMARK  146  A    between atoms: _391  and  _394
REMARK  147  A    between atoms: _397  and  _399
REMARK  148  A    between atoms: _399  and  _400
REMARK  149  A    between atoms: _399  and  _402
REMARK  150  A    between atoms: _402  and  _403
REMARK  151  A    between atoms: _413  and  _415
REMARK  152  A    between atoms: _415  and  _416
REMARK  153  A    between atoms: _415  and  _418
REMARK  154  A    between atoms: _418  and  _419
REMARK  155  A    between atoms: _424  and  _426
REMARK  156  A    between atoms: _426  and  _427
REMARK  157  A    between atoms: _426  and  _429
REMARK  158  A    between atoms: _429  and  _430
REMARK  159  A    between atoms: _430  and  _431
REMARK  160  A    between atoms: _431  and  _432
REMARK                            x       y       z     vdW  Elec       q    Type
REMARK                         _______ _______ _______ _____ _____    ______ ____
ROOT
ATOM      1  O   HOH     1      -2.896  -0.284  10.473  0.00  0.00    +0.000 OA
ENDROOT
TORSDOF 0
REMARK  Name = ../refined-set-2016/3ibn/3ibn_pocket.pdb
REMARK  160 active torsions:
REMARK  status: ('A' for Active; 'I' for Inactive)
REMARK    1  A    between atoms: _1  and  _3
REMARK    2  A    between atoms: _3  and  _4
REMARK    3  A    between atoms: _3  and  _6
REMARK    4  A    between atoms: _6  and  _7
REMARK    5  A    between atoms: _17  and  _19
REMARK    6  A    between atoms: _19  and  _20
REMARK    7  A    between atoms: _19  and  _22
REMARK    8  A    between atoms: _22  and  _23
REMARK    9  A    between atoms: _28  and  _29
REMARK   10  A    between atoms: _31  and  _33
REMARK   11  A    between atoms: _33  and  _34
REMARK   12  A    between atoms: _33  and  _36
REMARK   13  A    between atoms: _36  and  _37
REMARK   14  A    between atoms: _40  and  _41
REMARK   15  A    between atoms: _46  and  _48
REMARK   16  A    between atoms: _48  and  _49
REMARK   17  A    between atoms: _48  and  _51
REMARK   18  A    between atoms: _51  and  _52
REMARK   19  A    between atoms: _57  and  _59
REMARK   20  A    between atoms: _59  and  _60
REMARK   21  A    between atoms: _63  and  _65
REMARK   22  A    between atoms: _65  and  _66
REMARK   23  A    between atoms: _65  and  _68
REMARK   24  A    between atoms: _68  and  _69
REMARK   25  A    between atoms: _74  and  _76
REMARK   26  A    between atoms: _76  and  _77
REMARK   27  A    between atoms: _76  and  _79
REMARK   28  A    between atoms: _79  and  _80
REMARK   29  A    between atoms: _83  and  _85
REMARK   30  A    between atoms: _85  and  _86
REMARK   31  A    between atoms: _85  and  _88
REMARK   32  A    between atoms: _88  and  _89
REMARK   33  A    between atoms: _89  and  _90
REMARK   34  A    between atoms: _95  and  _97
REMARK   35  A    between atoms: _97  and  _98
REMARK   36  A    between atoms: _97  and  _100
REMARK   37  A    between atoms: _100  and  _101
REMARK   38  A    between atoms: _107  and  _109
REMARK   39  A    between atoms: _120  and  _123
REMARK   40  A    between atoms: _123  and  _124
REMARK   41  A    between atoms: _132  and  _133
REMARK   42  A    between atoms: _141  and  _143
REMARK   43  A    between atoms: _143  and  _144
REMARK   44  A    between atoms: _143  and  _146
REMARK   45  A    between atoms: _146  and  _147
REMARK   46  A    between atoms: _147  and  _148
REMARK   47  A    between atoms: _151  and  _153
REMARK   48  A    between atoms: _153  and  _154
REMARK   49  A    between atoms: _153  and  _156
REMARK   50  A    between atoms: _156  and  _157
REMARK   51  A    between atoms: _162  and  _164
REMARK   52  A    between atoms: _164  and  _165
REMARK   53  A    between atoms: _164  and  _167
REMARK   54  A    between atoms: _167  and  _168
REMARK   55  A    between atoms: _168  and  _169
REMARK   56  A    between atoms: _172  and  _174
REMARK   57  A    between atoms: _174  and  _175
REMARK   58  A    between atoms: _174  and  _177
REMARK   59  A    between atoms: _177  and  _178
REMARK   60  A    between atoms: _181  and  _183
REMARK   61  A    between atoms: _183  and  _184
REMARK   62  A    between atoms: _183  and  _186
REMARK   63  A    between atoms: _186  and  _187
REMARK   64  A    between atoms: _188  and  ZN_441
REMARK   65  A    between atoms: _192  and  _194
REMARK   66  A    between atoms: _194  and  _195
REMARK   67  A    between atoms: _194  and  _197
REMARK   68  A    between atoms: _197  and  _198
REMARK   69  A    between atoms: _201  and  _203
REMARK   70  A    between atoms: _203  and  _204
REMARK   71  A    between atoms: _203  and  _206
REMARK   72  A    between atoms: _209  and  _211
REMARK   73  A    between atoms: _211  and  _212
REMARK   74  A    between atoms: _211  and  _214
REMARK   75  A    between atoms: _214  and  _215
REMARK   76  A    between atoms: _220  and  _222
REMARK   77  A    between atoms: _222  and  _223
REMARK   78  A    between atoms: _222  and  _225
REMARK   79  A    between atoms: _225  and  _226
REMARK   80  A    between atoms: _229  and  _231
REMARK   81  A    between atoms: _231  and  _232
REMARK   82  A    between atoms: _231  and  _234
REMARK   83  A    between atoms: _234  and  _235
REMARK   84  A    between atoms: _241  and  _243
REMARK   85  A    between atoms: _243  and  _244
REMARK   86  A    between atoms: _246  and  _248
REMARK   87  A    between atoms: _248  and  _249
REMARK   88  A    between atoms: _248  and  _251
REMARK   89  A    between atoms: _251  and  _252
REMARK   90  A    between atoms: _252  and  _253
REMARK   91  A    between atoms: _253  and  _254
REMARK   92  A    between atoms: _254  and  _255
REMARK   93  A    between atoms: _259  and  _261
REMARK   94  A    between atoms: _261  and  _262
REMARK   95  A    between atoms: _265  and  _267
REMARK   96  A    between atoms: _267  and  _268
REMARK   97  A    between atoms: _267  and  _270
REMARK   98  A    between atoms: _273  and  _275
REMARK   99  A    between atoms: _275  and  _276
REMARK  100  A    between atoms: _275  and  _278
REMARK  101  A    between atoms: _278  and  _279
REMARK  102  A    between atoms: _279  and  _280
REMARK  103  A    between atoms: _285  and  _287
REMARK  104  A    between atoms: _287  and  _288
REMARK  105  A    between atoms: _287  and  _290
REMARK  106  A    between atoms: _290  and  _291
REMARK  107  A    between atoms: _294  and  _296
REMARK  108  A    between atoms: _296  and  _297
REMARK  109  A    between atoms: _300  and  _302
REMARK  110  A    between atoms: _302  and  _303
REMARK  111  A    between atoms: _302  and  _305
REMARK  112  A    between atoms: _308  and  _310
REMARK  113  A    between atoms: _310  and  _311
REMARK  114  A    between atoms: _310  and  _313
REMARK  115  A    between atoms: _313  and  _314
REMARK  116  A    between atoms: _317  and  _319
REMARK  117  A    between atoms: _319  and  _320
REMARK  118  A    between atoms: _322  and  _324
REMARK  119  A    between atoms: _324  and  _325
REMARK  120  A    between atoms: _324  and  _327
REMARK  121  A    between atoms: _327  and  _328
REMARK  122  A    between atoms: _330  and  _332
REMARK  123  A    between atoms: _332  and  _333
REMARK  124  A    between atoms: _332  and  _335
REMARK  125  A    between atoms: _335  and  _336
REMARK  126  A    between atoms: _339  and  _341
REMARK  127  A    between atoms: _341  and  _342
REMARK  128  A    between atoms: _341  and  _344
REMARK  129  A    between atoms: _344  and  _345
REMARK  130  A    between atoms: _348  and  _350
REMARK  131  A    between atoms: _350  and  _351
REMARK  132  A    between atoms: _350  and  _353
REMARK  133  A    between atoms: _353  and  _354
REMARK  134  A    between atoms: _358  and  _359
REMARK  135  A    between atoms: _365  and  _366
REMARK  136  A    between atoms: _371  and  _373
REMARK  137  A    between atoms: _373  and  _374
REMARK  138  A    between atoms: _373  and  _376
REMARK  139  A    between atoms: _376  and  _377
REMARK  140  A    between atoms: _380  and  _382
REMARK  141  A    between atoms: _382  and  _383
REMARK  142  A    between atoms: _382  and  _385
REMARK  143  A    between atoms: _385  and  _386
REMARK  144  A    between atoms: _389  and  _391
REMARK  145  A    between atoms: _391  and  _392
REMARK  146  A    between atoms: _391  and  _394
REMARK  147  A    between atoms: _397  and  _399
REMARK  148  A    between atoms: _399  and  _400
REMARK  149  A    between atoms: _399  and  _402
REMARK  150  A    between atoms: _402  and  _403
REMARK  151  A    between atoms: _413  and  _415
REMARK  152  A    between atoms: _415  and  _416
REMARK  153  A    between atoms: _415  and  _418
REMARK  154  A    between atoms: _418  and  _419
REMARK  155  A    between atoms: _424  and  _426
REMARK  156  A    between atoms: _426  and  _427
REMARK  157  A    between atoms: _426  and  _429
REMARK  158  A    between atoms: _429  and  _430
REMARK  159  A    between atoms: _430  and  _431
REMARK  160  A    between atoms: _431  and  _432
REMARK                            x       y       z     vdW  Elec       q    Type
REMARK                         _______ _______ _______ _____ _____    ______ ____
ROOT
ATOM      1  O   HOH     1      -6.278   7.482  10.159  0.00  0.00    +0.000 OA
ENDROOT
TORSDOF 0
REMARK  Name = ../refined-set-2016/3ibn/3ibn_pocket.pdb
REMARK  160 active torsions:
REMARK  status: ('A' for Active; 'I' for Inactive)
REMARK    1  A    between atoms: _1  and  _3
REMARK    2  A    between atoms: _3  and  _4
REMARK    3  A    between atoms: _3  and  _6
REMARK    4  A    between atoms: _6  and  _7
REMARK    5  A    between atoms: _17  and  _19
REMARK    6  A    between atoms: _19  and  _20
REMARK    7  A    between atoms: _19  and  _22
REMARK    8  A    between atoms: _22  and  _23
REMARK    9  A    between atoms: _28  and  _29
REMARK   10  A    between atoms: _31  and  _33
REMARK   11  A    between atoms: _33  and  _34
REMARK   12  A    between atoms: _33  and  _36
REMARK   13  A    between atoms: _36  and  _37
REMARK   14  A    between atoms: _40  and  _41
REMARK   15  A    between atoms: _46  and  _48
REMARK   16  A    between atoms: _48  and  _49
REMARK   17  A    between atoms: _48  and  _51
REMARK   18  A    between atoms: _51  and  _52
REMARK   19  A    between atoms: _57  and  _59
REMARK   20  A    between atoms: _59  and  _60
REMARK   21  A    between atoms: _63  and  _65
REMARK   22  A    between atoms: _65  and  _66
REMARK   23  A    between atoms: _65  and  _68
REMARK   24  A    between atoms: _68  and  _69
REMARK   25  A    between atoms: _74  and  _76
REMARK   26  A    between atoms: _76  and  _77
REMARK   27  A    between atoms: _76  and  _79
REMARK   28  A    between atoms: _79  and  _80
REMARK   29  A    between atoms: _83  and  _85
REMARK   30  A    between atoms: _85  and  _86
REMARK   31  A    between atoms: _85  and  _88
REMARK   32  A    between atoms: _88  and  _89
REMARK   33  A    between atoms: _89  and  _90
REMARK   34  A    between atoms: _95  and  _97
REMARK   35  A    between atoms: _97  and  _98
REMARK   36  A    between atoms: _97  and  _100
REMARK   37  A    between atoms: _100  and  _101
REMARK   38  A    between atoms: _107  and  _109
REMARK   39  A    between atoms: _120  and  _123
REMARK   40  A    between atoms: _123  and  _124
REMARK   41  A    between atoms: _132  and  _133
REMARK   42  A    between atoms: _141  and  _143
REMARK   43  A    between atoms: _143  and  _144
REMARK   44  A    between atoms: _143  and  _146
REMARK   45  A    between atoms: _146  and  _147
REMARK   46  A    between atoms: _147  and  _148
REMARK   47  A    between atoms: _151  and  _153
REMARK   48  A    between atoms: _153  and  _154
REMARK   49  A    between atoms: _153  and  _156
REMARK   50  A    between atoms: _156  and  _157
REMARK   51  A    between atoms: _162  and  _164
REMARK   52  A    between atoms: _164  and  _165
REMARK   53  A    between atoms: _164  and  _167
REMARK   54  A    between atoms: _167  and  _168
REMARK   55  A    between atoms: _168  and  _169
REMARK   56  A    between atoms: _172  and  _174
REMARK   57  A    between atoms: _174  and  _175
REMARK   58  A    between atoms: _174  and  _177
REMARK   59  A    between atoms: _177  and  _178
REMARK   60  A    between atoms: _181  and  _183
REMARK   61  A    between atoms: _183  and  _184
REMARK   62  A    between atoms: _183  and  _186
REMARK   63  A    between atoms: _186  and  _187
REMARK   64  A    between atoms: _188  and  ZN_441
REMARK   65  A    between atoms: _192  and  _194
REMARK   66  A    between atoms: _194  and  _195
REMARK   67  A    between atoms: _194  and  _197
REMARK   68  A    between atoms: _197  and  _198
REMARK   69  A    between atoms: _201  and  _203
REMARK   70  A    between atoms: _203  and  _204
REMARK   71  A    between atoms: _203  and  _206
REMARK   72  A    between atoms: _209  and  _211
REMARK   73  A    between atoms: _211  and  _212
REMARK   74  A    between atoms: _211  and  _214
REMARK   75  A    between atoms: _214  and  _215
REMARK   76  A    between atoms: _220  and  _222
REMARK   77  A    between atoms: _222  and  _223
REMARK   78  A    between atoms: _222  and  _225
REMARK   79  A    between atoms: _225  and  _226
REMARK   80  A    between atoms: _229  and  _231
REMARK   81  A    between atoms: _231  and  _232
REMARK   82  A    between atoms: _231  and  _234
REMARK   83  A    between atoms: _234  and  _235
REMARK   84  A    between atoms: _241  and  _243
REMARK   85  A    between atoms: _243  and  _244
REMARK   86  A    between atoms: _246  and  _248
REMARK   87  A    between atoms: _248  and  _249
REMARK   88  A    between atoms: _248  and  _251
REMARK   89  A    between atoms: _251  and  _252
REMARK   90  A    between atoms: _252  and  _253
REMARK   91  A    between atoms: _253  and  _254
REMARK   92  A    between atoms: _254  and  _255
REMARK   93  A    between atoms: _259  and  _261
REMARK   94  A    between atoms: _261  and  _262
REMARK   95  A    between atoms: _265  and  _267
REMARK   96  A    between atoms: _267  and  _268
REMARK   97  A    between atoms: _267  and  _270
REMARK   98  A    between atoms: _273  and  _275
REMARK   99  A    between atoms: _275  and  _276
REMARK  100  A    between atoms: _275  and  _278
REMARK  101  A    between atoms: _278  and  _279
REMARK  102  A    between atoms: _279  and  _280
REMARK  103  A    between atoms: _285  and  _287
REMARK  104  A    between atoms: _287  and  _288
REMARK  105  A    between atoms: _287  and  _290
REMARK  106  A    between atoms: _290  and  _291
REMARK  107  A    between atoms: _294  and  _296
REMARK  108  A    between atoms: _296  and  _297
REMARK  109  A    between atoms: _300  and  _302
REMARK  110  A    between atoms: _302  and  _303
REMARK  111  A    between atoms: _302  and  _305
REMARK  112  A    between atoms: _308  and  _310
REMARK  113  A    between atoms: _310  and  _311
REMARK  114  A    between atoms: _310  and  _313
REMARK  115  A    between atoms: _313  and  _314
REMARK  116  A    between atoms: _317  and  _319
REMARK  117  A    between atoms: _319  and  _320
REMARK  118  A    between atoms: _322  and  _324
REMARK  119  A    between atoms: _324  and  _325
REMARK  120  A    between atoms: _324  and  _327
REMARK  121  A    between atoms: _327  and  _328
REMARK  122  A    between atoms: _330  and  _332
REMARK  123  A    between atoms: _332  and  _333
REMARK  124  A    between atoms: _332  and  _335
REMARK  125  A    between atoms: _335  and  _336
REMARK  126  A    between atoms: _339  and  _341
REMARK  127  A    between atoms: _341  and  _342
REMARK  128  A    between atoms: _341  and  _344
REMARK  129  A    between atoms: _344  and  _345
REMARK  130  A    between atoms: _348  and  _350
REMARK  131  A    between atoms: _350  and  _351
REMARK  132  A    between atoms: _350  and  _353
REMARK  133  A    between atoms: _353  and  _354
REMARK  134  A    between atoms: _358  and  _359
REMARK  135  A    between atoms: _365  and  _366
REMARK  136  A    between atoms: _371  and  _373
REMARK  137  A    between atoms: _373  and  _374
REMARK  138  A    between atoms: _373  and  _376
REMARK  139  A    between atoms: _376  and  _377
REMARK  140  A    between atoms: _380  and  _382
REMARK  141  A    between atoms: _382  and  _383
REMARK  142  A    between atoms: _382  and  _385
REMARK  143  A    between atoms: _385  and  _386
REMARK  144  A    between atoms: _389  and  _391
REMARK  145  A    between atoms: _391  and  _392
REMARK  146  A    between atoms: _391  and  _394
REMARK  147  A    between atoms: _397  and  _399
REMARK  148  A    between atoms: _399  and  _400
REMARK  149  A    between atoms: _399  and  _402
REMARK  150  A    between atoms: _402  and  _403
REMARK  151  A    between atoms: _413  and  _415
REMARK  152  A    between atoms: _415  and  _416
REMARK  153  A    between atoms: _415  and  _418
REMARK  154  A    between atoms: _418  and  _419
REMARK  155  A    between atoms: _424  and  _426
REMARK  156  A    between atoms: _426  and  _427
REMARK  157  A    between atoms: _426  and  _429
REMARK  158  A    between atoms: _429  and  _430
REMARK  159  A    between atoms: _430  and  _431
REMARK  160  A    between atoms: _431  and  _432
REMARK                            x       y       z     vdW  Elec       q    Type
REMARK                         _______ _______ _______ _____ _____    ______ ____
ROOT
ATOM      1  O   HOH     1      -2.354  -3.111  11.272  0.00  0.00    +0.000 OA
ENDROOT
TORSDOF 0
