REMARK  Name = ../refined-set-2016/1w5x/1w5x_pocket.pdb
REMARK  250 active torsions:
REMARK  status: ('A' for Active; 'I' for Inactive)
REMARK    1  A    between atoms: _1  and  _3
REMARK    2  A    between atoms: _3  and  _4
REMARK    3  A    between atoms: _3  and  _6
REMARK    4  A    between atoms: _6  and  _7
REMARK    5  A    between atoms: _7  and  _8
REMARK    6  A    between atoms: _8  and  _9
REMARK    7  A    between atoms: _18  and  _20
REMARK    8  A    between atoms: _20  and  _21
REMARK    9  A    between atoms: _20  and  _23
REMARK   10  A    between atoms: _23  and  _24
REMARK   11  A    between atoms: _27  and  _29
REMARK   12  A    between atoms: _29  and  _30
REMARK   13  A    between atoms: _29  and  _32
REMARK   14  A    between atoms: _32  and  _33
REMARK   15  A    between atoms: _36  and  _38
REMARK   16  A    between atoms: _38  and  _39
REMARK   17  A    between atoms: _38  and  _41
REMARK   18  A    between atoms: _41  and  _42
REMARK   19  A    between atoms: _45  and  _47
REMARK   20  A    between atoms: _47  and  _48
REMARK   21  A    between atoms: _47  and  _50
REMARK   22  A    between atoms: _50  and  _51
REMARK   23  A    between atoms: _54  and  _56
REMARK   24  A    between atoms: _56  and  _57
REMARK   25  A    between atoms: _56  and  _59
REMARK   26  A    between atoms: _59  and  _60
REMARK   27  A    between atoms: _63  and  _65
REMARK   28  A    between atoms: _65  and  _66
REMARK   29  A    between atoms: _68  and  _70
REMARK   30  A    between atoms: _70  and  _71
REMARK   31  A    between atoms: _74  and  _76
REMARK   32  A    between atoms: _76  and  _77
REMARK   33  A    between atoms: _76  and  _79
REMARK   34  A    between atoms: _79  and  _80
REMARK   35  A    between atoms: _83  and  _85
REMARK   36  A    between atoms: _85  and  _86
REMARK   37  A    between atoms: _85  and  _88
REMARK   38  A    between atoms: _88  and  _89
REMARK   39  A    between atoms: _92  and  _94
REMARK   40  A    between atoms: _94  and  _95
REMARK   41  A    between atoms: _94  and  _97
REMARK   42  A    between atoms: _97  and  _98
REMARK   43  A    between atoms: _101  and  _103
REMARK   44  A    between atoms: _103  and  _104
REMARK   45  A    between atoms: _103  and  _106
REMARK   46  A    between atoms: _109  and  _111
REMARK   47  A    between atoms: _111  and  _112
REMARK   48  A    between atoms: _111  and  _114
REMARK   49  A    between atoms: _114  and  _115
REMARK   50  A    between atoms: _118  and  _120
REMARK   51  A    between atoms: _120  and  _121
REMARK   52  A    between atoms: _120  and  _123
REMARK   53  A    between atoms: _123  and  _124
REMARK   54  A    between atoms: _124  and  _125
REMARK   55  A    between atoms: _125  and  _126
REMARK   56  A    between atoms: _126  and  _127
REMARK   57  A    between atoms: _131  and  _133
REMARK   58  A    between atoms: _133  and  _134
REMARK   59  A    between atoms: _133  and  _136
REMARK   60  A    between atoms: _136  and  _137
REMARK   61  A    between atoms: _137  and  _138
REMARK   62  A    between atoms: _140  and  _142
REMARK   63  A    between atoms: _142  and  _143
REMARK   64  A    between atoms: _142  and  _145
REMARK   65  A    between atoms: _145  and  _146
REMARK   66  A    between atoms: _149  and  _151
REMARK   67  A    between atoms: _151  and  _152
REMARK   68  A    between atoms: _154  and  _156
REMARK   69  A    between atoms: _156  and  _157
REMARK   70  A    between atoms: _159  and  _161
REMARK   71  A    between atoms: _161  and  _162
REMARK   72  A    between atoms: _161  and  _164
REMARK   73  A    between atoms: _164  and  _165
REMARK   74  A    between atoms: _168  and  _170
REMARK   75  A    between atoms: _170  and  _171
REMARK   76  A    between atoms: _173  and  _175
REMARK   77  A    between atoms: _175  and  _176
REMARK   78  A    between atoms: _178  and  _180
REMARK   79  A    between atoms: _180  and  _181
REMARK   80  A    between atoms: _180  and  _183
REMARK   81  A    between atoms: _183  and  _184
REMARK   82  A    between atoms: _190  and  _192
REMARK   83  A    between atoms: _192  and  _193
REMARK   84  A    between atoms: _192  and  _195
REMARK   85  A    between atoms: _195  and  _196
REMARK   86  A    between atoms: _199  and  _201
REMARK   87  A    between atoms: _201  and  _202
REMARK   88  A    between atoms: _201  and  _204
REMARK   89  A    between atoms: _207  and  _209
REMARK   90  A    between atoms: _209  and  _210
REMARK   91  A    between atoms: _209  and  _212
REMARK   92  A    between atoms: _212  and  _213
REMARK   93  A    between atoms: _217  and  _218
REMARK   94  A    between atoms: _223  and  _225
REMARK   95  A    between atoms: _225  and  _226
REMARK   96  A    between atoms: _225  and  _228
REMARK   97  A    between atoms: _228  and  _229
REMARK   98  A    between atoms: _233  and  _234
REMARK   99  A    between atoms: _239  and  _241
REMARK  100  A    between atoms: _241  and  _242
REMARK  101  A    between atoms: _241  and  _244
REMARK  102  A    between atoms: _247  and  _249
REMARK  103  A    between atoms: _249  and  _250
REMARK  104  A    between atoms: _249  and  _252
REMARK  105  A    between atoms: _252  and  _253
REMARK  106  A    between atoms: _258  and  _260
REMARK  107  A    between atoms: _260  and  _261
REMARK  108  A    between atoms: _260  and  _263
REMARK  109  A    between atoms: _263  and  _264
REMARK  110  A    between atoms: _267  and  _269
REMARK  111  A    between atoms: _269  and  _270
REMARK  112  A    between atoms: _269  and  _272
REMARK  113  A    between atoms: _272  and  _273
REMARK  114  A    between atoms: _276  and  _278
REMARK  115  A    between atoms: _278  and  _279
REMARK  116  A    between atoms: _281  and  _283
REMARK  117  A    between atoms: _283  and  _284
REMARK  118  A    between atoms: _283  and  _286
REMARK  119  A    between atoms: _286  and  _287
REMARK  120  A    between atoms: _287  and  _288
REMARK  121  A    between atoms: _288  and  _289
REMARK  122  A    between atoms: _298  and  _300
REMARK  123  A    between atoms: _300  and  _301
REMARK  124  A    between atoms: _300  and  _303
REMARK  125  A    between atoms: _303  and  _304
REMARK  126  A    between atoms: _309  and  _311
REMARK  127  A    between atoms: _311  and  _312
REMARK  128  A    between atoms: _311  and  _314
REMARK  129  A    between atoms: _314  and  _315
REMARK  130  A    between atoms: _315  and  _316
REMARK  131  A    between atoms: _316  and  _317
REMARK  132  A    between atoms: _326  and  _328
REMARK  133  A    between atoms: _328  and  _329
REMARK  134  A    between atoms: _328  and  _331
REMARK  135  A    between atoms: _331  and  _332
REMARK  136  A    between atoms: _335  and  _337
REMARK  137  A    between atoms: _337  and  _338
REMARK  138  A    between atoms: _337  and  _340
REMARK  139  A    between atoms: _340  and  _341
REMARK  140  A    between atoms: _344  and  _346
REMARK  141  A    between atoms: _346  and  _347
REMARK  142  A    between atoms: _346  and  _349
REMARK  143  A    between atoms: _349  and  _350
REMARK  144  A    between atoms: _353  and  _355
REMARK  145  A    between atoms: _355  and  _356
REMARK  146  A    between atoms: _355  and  _358
REMARK  147  A    between atoms: _358  and  _359
REMARK  148  A    between atoms: _362  and  _364
REMARK  149  A    between atoms: _364  and  _365
REMARK  150  A    between atoms: _364  and  _367
REMARK  151  A    between atoms: _367  and  _368
REMARK  152  A    between atoms: _371  and  _373
REMARK  153  A    between atoms: _373  and  _374
REMARK  154  A    between atoms: _376  and  _378
REMARK  155  A    between atoms: _378  and  _379
REMARK  156  A    between atoms: _382  and  _384
REMARK  157  A    between atoms: _384  and  _385
REMARK  158  A    between atoms: _384  and  _387
REMARK  159  A    between atoms: _387  and  _388
REMARK  160  A    between atoms: _391  and  _393
REMARK  161  A    between atoms: _393  and  _394
REMARK  162  A    between atoms: _393  and  _396
REMARK  163  A    between atoms: _396  and  _397
REMARK  164  A    between atoms: _400  and  _402
REMARK  165  A    between atoms: _402  and  _403
REMARK  166  A    between atoms: _402  and  _405
REMARK  167  A    between atoms: _405  and  _406
REMARK  168  A    between atoms: _409  and  _411
REMARK  169  A    between atoms: _411  and  _412
REMARK  170  A    between atoms: _411  and  _414
REMARK  171  A    between atoms: _417  and  _419
REMARK  172  A    between atoms: _419  and  _420
REMARK  173  A    between atoms: _419  and  _422
REMARK  174  A    between atoms: _422  and  _423
REMARK  175  A    between atoms: _426  and  _428
REMARK  176  A    between atoms: _428  and  _429
REMARK  177  A    between atoms: _428  and  _431
REMARK  178  A    between atoms: _431  and  _432
REMARK  179  A    between atoms: _432  and  _433
REMARK  180  A    between atoms: _433  and  _434
REMARK  181  A    between atoms: _434  and  _435
REMARK  182  A    between atoms: _439  and  _441
REMARK  183  A    between atoms: _441  and  _442
REMARK  184  A    between atoms: _441  and  _444
REMARK  185  A    between atoms: _444  and  _445
REMARK  186  A    between atoms: _445  and  _446
REMARK  187  A    between atoms: _448  and  _450
REMARK  188  A    between atoms: _450  and  _451
REMARK  189  A    between atoms: _450  and  _453
REMARK  190  A    between atoms: _453  and  _454
REMARK  191  A    between atoms: _457  and  _459
REMARK  192  A    between atoms: _459  and  _460
REMARK  193  A    between atoms: _462  and  _464
REMARK  194  A    between atoms: _464  and  _465
REMARK  195  A    between atoms: _467  and  _469
REMARK  196  A    between atoms: _469  and  _470
REMARK  197  A    between atoms: _469  and  _472
REMARK  198  A    between atoms: _472  and  _473
REMARK  199  A    between atoms: _476  and  _478
REMARK  200  A    between atoms: _478  and  _479
REMARK  201  A    between atoms: _481  and  _483
REMARK  202  A    between atoms: _483  and  _484
REMARK  203  A    between atoms: _486  and  _488
REMARK  204  A    between atoms: _488  and  _489
REMARK  205  A    between atoms: _488  and  _491
REMARK  206  A    between atoms: _491  and  _492
REMARK  207  A    between atoms: _498  and  _500
REMARK  208  A    between atoms: _500  and  _501
REMARK  209  A    between atoms: _500  and  _503
REMARK  210  A    between atoms: _503  and  _504
REMARK  211  A    between atoms: _507  and  _509
REMARK  212  A    between atoms: _509  and  _510
REMARK  213  A    between atoms: _509  and  _512
REMARK  214  A    between atoms: _515  and  _517
REMARK  215  A    between atoms: _517  and  _518
REMARK  216  A    between atoms: _517  and  _520
REMARK  217  A    between atoms: _520  and  _521
REMARK  218  A    between atoms: _525  and  _526
REMARK  219  A    between atoms: _531  and  _533
REMARK  220  A    between atoms: _533  and  _534
REMARK  221  A    between atoms: _533  and  _536
REMARK  222  A    between atoms: _536  and  _537
REMARK  223  A    between atoms: _541  and  _542
REMARK  224  A    between atoms: _547  and  _549
REMARK  225  A    between atoms: _549  and  _550
REMARK  226  A    between atoms: _549  and  _552
REMARK  227  A    between atoms: _555  and  _557
REMARK  228  A    between atoms: _557  and  _558
REMARK  229  A    between atoms: _557  and  _560
REMARK  230  A    between atoms: _560  and  _561
REMARK  231  A    between atoms: _566  and  _568
REMARK  232  A    between atoms: _568  and  _569
REMARK  233  A    between atoms: _568  and  _571
REMARK  234  A    between atoms: _571  and  _572
REMARK  235  A    between atoms: _575  and  _577
REMARK  236  A    between atoms: _577  and  _578
REMARK  237  A    between atoms: _577  and  _580
REMARK  238  A    between atoms: _580  and  _581
REMARK  239  A    between atoms: _584  and  _586
REMARK  240  A    between atoms: _586  and  _587
REMARK  241  A    between atoms: _589  and  _591
REMARK  242  A    between atoms: _591  and  _592
REMARK  243  A    between atoms: _591  and  _594
REMARK  244  A    between atoms: _594  and  _595
REMARK  245  A    between atoms: _595  and  _596
REMARK  246  A    between atoms: _596  and  _597
REMARK  247  A    between atoms: _606  and  _608
REMARK  248  A    between atoms: _608  and  _609
REMARK  249  A    between atoms: _608  and  _611
REMARK  250  A    between atoms: _611  and  _612
REMARK                            x       y       z     vdW  Elec       q    Type
REMARK                         _______ _______ _______ _____ _____    ______ ____
ROOT
ATOM      1  NE  ARG A   1      22.710  20.475   7.782  0.00  0.00    -0.265 N 
ATOM      2  CZ  ARG A   1      22.015  19.682   8.589  0.00  0.00    +0.342 C 
ATOM      3  NH2 ARG A   1      21.928  19.967   9.884  0.00  0.00    -0.292 N 
ATOM      4 HH21 ARG A   1      21.384  19.347  10.518  0.00  0.00    +0.255 HD
ATOM      5 HH22 ARG A   1      22.404  20.810  10.264  0.00  0.00    +0.255 HD
ATOM      6  NH1 ARG A   1      21.412  18.603   8.106  0.00  0.00    -0.292 N 
ATOM      7 HH11 ARG A   1      20.868  17.983   8.740  0.00  0.00    +0.255 HD
ATOM      8 HH12 ARG A   1      21.483  18.377   7.093  0.00  0.00    +0.255 HD
ATOM      9  HE  ARG A   1      22.759  20.227   6.773  0.00  0.00    +0.259 HD
ENDROOT
BRANCH   1  10
ATOM     10  CD  ARG A   1      23.409  21.674   8.230  0.00  0.00    +0.174 C 
BRANCH  10  11
ATOM     11  CG  ARG A   1      24.163  22.338   7.099  0.00  0.00    +0.045 C 
BRANCH  11  12
ATOM     12  CB  ARG A   1      24.713  23.675   7.533  0.00  0.00    +0.029 C 
BRANCH  12  13
ATOM     13  CA  ARG A   1      25.365  24.458   6.397  0.00  0.00    +0.133 C 
BRANCH  13  14
ATOM     14  N   ARG A   1      26.592  23.807   5.974  0.00  0.00    -0.239 NA
ATOM     15  H   ARG A   1      26.892  22.925   6.436  0.00  0.00    +0.142 HD
ENDBRANCH  13  14
BRANCH  13  16
ATOM     16  C   ARG A   1      25.701  25.865   6.865  0.00  0.00    +0.224 C 
ATOM     17  O   ARG A   1      26.685  26.071   7.585  0.00  0.00    -0.287 OA
ENDBRANCH  13  16
ENDBRANCH  12  13
ENDBRANCH  11  12
ENDBRANCH  10  11
ENDBRANCH   1  10
TORSDOF 6
REMARK  Name = ../refined-set-2016/1w5x/1w5x_pocket.pdb
REMARK  250 active torsions:
REMARK  status: ('A' for Active; 'I' for Inactive)
REMARK    1  A    between atoms: _1  and  _3
REMARK    2  A    between atoms: _3  and  _4
REMARK    3  A    between atoms: _3  and  _6
REMARK    4  A    between atoms: _6  and  _7
REMARK    5  A    between atoms: _7  and  _8
REMARK    6  A    between atoms: _8  and  _9
REMARK    7  A    between atoms: _18  and  _20
REMARK    8  A    between atoms: _20  and  _21
REMARK    9  A    between atoms: _20  and  _23
REMARK   10  A    between atoms: _23  and  _24
REMARK   11  A    between atoms: _27  and  _29
REMARK   12  A    between atoms: _29  and  _30
REMARK   13  A    between atoms: _29  and  _32
REMARK   14  A    between atoms: _32  and  _33
REMARK   15  A    between atoms: _36  and  _38
REMARK   16  A    between atoms: _38  and  _39
REMARK   17  A    between atoms: _38  and  _41
REMARK   18  A    between atoms: _41  and  _42
REMARK   19  A    between atoms: _45  and  _47
REMARK   20  A    between atoms: _47  and  _48
REMARK   21  A    between atoms: _47  and  _50
REMARK   22  A    between atoms: _50  and  _51
REMARK   23  A    between atoms: _54  and  _56
REMARK   24  A    between atoms: _56  and  _57
REMARK   25  A    between atoms: _56  and  _59
REMARK   26  A    between atoms: _59  and  _60
REMARK   27  A    between atoms: _63  and  _65
REMARK   28  A    between atoms: _65  and  _66
REMARK   29  A    between atoms: _68  and  _70
REMARK   30  A    between atoms: _70  and  _71
REMARK   31  A    between atoms: _74  and  _76
REMARK   32  A    between atoms: _76  and  _77
REMARK   33  A    between atoms: _76  and  _79
REMARK   34  A    between atoms: _79  and  _80
REMARK   35  A    between atoms: _83  and  _85
REMARK   36  A    between atoms: _85  and  _86
REMARK   37  A    between atoms: _85  and  _88
REMARK   38  A    between atoms: _88  and  _89
REMARK   39  A    between atoms: _92  and  _94
REMARK   40  A    between atoms: _94  and  _95
REMARK   41  A    between atoms: _94  and  _97
REMARK   42  A    between atoms: _97  and  _98
REMARK   43  A    between atoms: _101  and  _103
REMARK   44  A    between atoms: _103  and  _104
REMARK   45  A    between atoms: _103  and  _106
REMARK   46  A    between atoms: _109  and  _111
REMARK   47  A    between atoms: _111  and  _112
REMARK   48  A    between atoms: _111  and  _114
REMARK   49  A    between atoms: _114  and  _115
REMARK   50  A    between atoms: _118  and  _120
REMARK   51  A    between atoms: _120  and  _121
REMARK   52  A    between atoms: _120  and  _123
REMARK   53  A    between atoms: _123  and  _124
REMARK   54  A    between atoms: _124  and  _125
REMARK   55  A    between atoms: _125  and  _126
REMARK   56  A    between atoms: _126  and  _127
REMARK   57  A    between atoms: _131  and  _133
REMARK   58  A    between atoms: _133  and  _134
REMARK   59  A    between atoms: _133  and  _136
REMARK   60  A    between atoms: _136  and  _137
REMARK   61  A    between atoms: _137  and  _138
REMARK   62  A    between atoms: _140  and  _142
REMARK   63  A    between atoms: _142  and  _143
REMARK   64  A    between atoms: _142  and  _145
REMARK   65  A    between atoms: _145  and  _146
REMARK   66  A    between atoms: _149  and  _151
REMARK   67  A    between atoms: _151  and  _152
REMARK   68  A    between atoms: _154  and  _156
REMARK   69  A    between atoms: _156  and  _157
REMARK   70  A    between atoms: _159  and  _161
REMARK   71  A    between atoms: _161  and  _162
REMARK   72  A    between atoms: _161  and  _164
REMARK   73  A    between atoms: _164  and  _165
REMARK   74  A    between atoms: _168  and  _170
REMARK   75  A    between atoms: _170  and  _171
REMARK   76  A    between atoms: _173  and  _175
REMARK   77  A    between atoms: _175  and  _176
REMARK   78  A    between atoms: _178  and  _180
REMARK   79  A    between atoms: _180  and  _181
REMARK   80  A    between atoms: _180  and  _183
REMARK   81  A    between atoms: _183  and  _184
REMARK   82  A    between atoms: _190  and  _192
REMARK   83  A    between atoms: _192  and  _193
REMARK   84  A    between atoms: _192  and  _195
REMARK   85  A    between atoms: _195  and  _196
REMARK   86  A    between atoms: _199  and  _201
REMARK   87  A    between atoms: _201  and  _202
REMARK   88  A    between atoms: _201  and  _204
REMARK   89  A    between atoms: _207  and  _209
REMARK   90  A    between atoms: _209  and  _210
REMARK   91  A    between atoms: _209  and  _212
REMARK   92  A    between atoms: _212  and  _213
REMARK   93  A    between atoms: _217  and  _218
REMARK   94  A    between atoms: _223  and  _225
REMARK   95  A    between atoms: _225  and  _226
REMARK   96  A    between atoms: _225  and  _228
REMARK   97  A    between atoms: _228  and  _229
REMARK   98  A    between atoms: _233  and  _234
REMARK   99  A    between atoms: _239  and  _241
REMARK  100  A    between atoms: _241  and  _242
REMARK  101  A    between atoms: _241  and  _244
REMARK  102  A    between atoms: _247  and  _249
REMARK  103  A    between atoms: _249  and  _250
REMARK  104  A    between atoms: _249  and  _252
REMARK  105  A    between atoms: _252  and  _253
REMARK  106  A    between atoms: _258  and  _260
REMARK  107  A    between atoms: _260  and  _261
REMARK  108  A    between atoms: _260  and  _263
REMARK  109  A    between atoms: _263  and  _264
REMARK  110  A    between atoms: _267  and  _269
REMARK  111  A    between atoms: _269  and  _270
REMARK  112  A    between atoms: _269  and  _272
REMARK  113  A    between atoms: _272  and  _273
REMARK  114  A    between atoms: _276  and  _278
REMARK  115  A    between atoms: _278  and  _279
REMARK  116  A    between atoms: _281  and  _283
REMARK  117  A    between atoms: _283  and  _284
REMARK  118  A    between atoms: _283  and  _286
REMARK  119  A    between atoms: _286  and  _287
REMARK  120  A    between atoms: _287  and  _288
REMARK  121  A    between atoms: _288  and  _289
REMARK  122  A    between atoms: _298  and  _300
REMARK  123  A    between atoms: _300  and  _301
REMARK  124  A    between atoms: _300  and  _303
REMARK  125  A    between atoms: _303  and  _304
REMARK  126  A    between atoms: _309  and  _311
REMARK  127  A    between atoms: _311  and  _312
REMARK  128  A    between atoms: _311  and  _314
REMARK  129  A    between atoms: _314  and  _315
REMARK  130  A    between atoms: _315  and  _316
REMARK  131  A    between atoms: _316  and  _317
REMARK  132  A    between atoms: _326  and  _328
REMARK  133  A    between atoms: _328  and  _329
REMARK  134  A    between atoms: _328  and  _331
REMARK  135  A    between atoms: _331  and  _332
REMARK  136  A    between atoms: _335  and  _337
REMARK  137  A    between atoms: _337  and  _338
REMARK  138  A    between atoms: _337  and  _340
REMARK  139  A    between atoms: _340  and  _341
REMARK  140  A    between atoms: _344  and  _346
REMARK  141  A    between atoms: _346  and  _347
REMARK  142  A    between atoms: _346  and  _349
REMARK  143  A    between atoms: _349  and  _350
REMARK  144  A    between atoms: _353  and  _355
REMARK  145  A    between atoms: _355  and  _356
REMARK  146  A    between atoms: _355  and  _358
REMARK  147  A    between atoms: _358  and  _359
REMARK  148  A    between atoms: _362  and  _364
REMARK  149  A    between atoms: _364  and  _365
REMARK  150  A    between atoms: _364  and  _367
REMARK  151  A    between atoms: _367  and  _368
REMARK  152  A    between atoms: _371  and  _373
REMARK  153  A    between atoms: _373  and  _374
REMARK  154  A    between atoms: _376  and  _378
REMARK  155  A    between atoms: _378  and  _379
REMARK  156  A    between atoms: _382  and  _384
REMARK  157  A    between atoms: _384  and  _385
REMARK  158  A    between atoms: _384  and  _387
REMARK  159  A    between atoms: _387  and  _388
REMARK  160  A    between atoms: _391  and  _393
REMARK  161  A    between atoms: _393  and  _394
REMARK  162  A    between atoms: _393  and  _396
REMARK  163  A    between atoms: _396  and  _397
REMARK  164  A    between atoms: _400  and  _402
REMARK  165  A    between atoms: _402  and  _403
REMARK  166  A    between atoms: _402  and  _405
REMARK  167  A    between atoms: _405  and  _406
REMARK  168  A    between atoms: _409  and  _411
REMARK  169  A    between atoms: _411  and  _412
REMARK  170  A    between atoms: _411  and  _414
REMARK  171  A    between atoms: _417  and  _419
REMARK  172  A    between atoms: _419  and  _420
REMARK  173  A    between atoms: _419  and  _422
REMARK  174  A    between atoms: _422  and  _423
REMARK  175  A    between atoms: _426  and  _428
REMARK  176  A    between atoms: _428  and  _429
REMARK  177  A    between atoms: _428  and  _431
REMARK  178  A    between atoms: _431  and  _432
REMARK  179  A    between atoms: _432  and  _433
REMARK  180  A    between atoms: _433  and  _434
REMARK  181  A    between atoms: _434  and  _435
REMARK  182  A    between atoms: _439  and  _441
REMARK  183  A    between atoms: _441  and  _442
REMARK  184  A    between atoms: _441  and  _444
REMARK  185  A    between atoms: _444  and  _445
REMARK  186  A    between atoms: _445  and  _446
REMARK  187  A    between atoms: _448  and  _450
REMARK  188  A    between atoms: _450  and  _451
REMARK  189  A    between atoms: _450  and  _453
REMARK  190  A    between atoms: _453  and  _454
REMARK  191  A    between atoms: _457  and  _459
REMARK  192  A    between atoms: _459  and  _460
REMARK  193  A    between atoms: _462  and  _464
REMARK  194  A    between atoms: _464  and  _465
REMARK  195  A    between atoms: _467  and  _469
REMARK  196  A    between atoms: _469  and  _470
REMARK  197  A    between atoms: _469  and  _472
REMARK  198  A    between atoms: _472  and  _473
REMARK  199  A    between atoms: _476  and  _478
REMARK  200  A    between atoms: _478  and  _479
REMARK  201  A    between atoms: _481  and  _483
REMARK  202  A    between atoms: _483  and  _484
REMARK  203  A    between atoms: _486  and  _488
REMARK  204  A    between atoms: _488  and  _489
REMARK  205  A    between atoms: _488  and  _491
REMARK  206  A    between atoms: _491  and  _492
REMARK  207  A    between atoms: _498  and  _500
REMARK  208  A    between atoms: _500  and  _501
REMARK  209  A    between atoms: _500  and  _503
REMARK  210  A    between atoms: _503  and  _504
REMARK  211  A    between atoms: _507  and  _509
REMARK  212  A    between atoms: _509  and  _510
REMARK  213  A    between atoms: _509  and  _512
REMARK  214  A    between atoms: _515  and  _517
REMARK  215  A    between atoms: _517  and  _518
REMARK  216  A    between atoms: _517  and  _520
REMARK  217  A    between atoms: _520  and  _521
REMARK  218  A    between atoms: _525  and  _526
REMARK  219  A    between atoms: _531  and  _533
REMARK  220  A    between atoms: _533  and  _534
REMARK  221  A    between atoms: _533  and  _536
REMARK  222  A    between atoms: _536  and  _537
REMARK  223  A    between atoms: _541  and  _542
REMARK  224  A    between atoms: _547  and  _549
REMARK  225  A    between atoms: _549  and  _550
REMARK  226  A    between atoms: _549  and  _552
REMARK  227  A    between atoms: _555  and  _557
REMARK  228  A    between atoms: _557  and  _558
REMARK  229  A    between atoms: _557  and  _560
REMARK  230  A    between atoms: _560  and  _561
REMARK  231  A    between atoms: _566  and  _568
REMARK  232  A    between atoms: _568  and  _569
REMARK  233  A    between atoms: _568  and  _571
REMARK  234  A    between atoms: _571  and  _572
REMARK  235  A    between atoms: _575  and  _577
REMARK  236  A    between atoms: _577  and  _578
REMARK  237  A    between atoms: _577  and  _580
REMARK  238  A    between atoms: _580  and  _581
REMARK  239  A    between atoms: _584  and  _586
REMARK  240  A    between atoms: _586  and  _587
REMARK  241  A    between atoms: _589  and  _591
REMARK  242  A    between atoms: _591  and  _592
REMARK  243  A    between atoms: _591  and  _594
REMARK  244  A    between atoms: _594  and  _595
REMARK  245  A    between atoms: _595  and  _596
REMARK  246  A    between atoms: _596  and  _597
REMARK  247  A    between atoms: _606  and  _608
REMARK  248  A    between atoms: _608  and  _609
REMARK  249  A    between atoms: _608  and  _611
REMARK  250  A    between atoms: _611  and  _612
REMARK                            x       y       z     vdW  Elec       q    Type
REMARK                         _______ _______ _______ _____ _____    ______ ____
ROOT
ATOM      1  CA  LEU A   1      25.175  28.242  10.644  0.00  0.00    +0.133 C 
ENDROOT
BRANCH   1   2
ATOM      2  N   LEU A   1      25.481  28.071   9.232  0.00  0.00    -0.239 NA
ATOM      3  H   LEU A   1      26.365  27.591   8.967  0.00  0.00    +0.142 HD
ENDBRANCH   1   2
BRANCH   1   4
ATOM      4  C   LEU A   1      25.818  29.518  11.164  0.00  0.00    +0.224 C 
ATOM      5  O   LEU A   1      26.957  29.835  10.821  0.00  0.00    -0.287 OA
ENDBRANCH   1   4
BRANCH   1   6
ATOM      6  CB  LEU A   1      25.697  27.044  11.442  0.00  0.00    +0.025 C 
BRANCH   6   7
ATOM      7  CG  LEU A   1      25.023  25.697  11.178  0.00  0.00    +0.002 C 
ATOM      8  CD2 LEU A   1      25.753  24.602  11.941  0.00  0.00    +0.000 C 
ATOM      9  CD1 LEU A   1      23.565  25.762  11.607  0.00  0.00    +0.000 C 
ENDBRANCH   6   7
ENDBRANCH   1   6
TORSDOF 4
REMARK  Name = ../refined-set-2016/1w5x/1w5x_pocket.pdb
REMARK  250 active torsions:
REMARK  status: ('A' for Active; 'I' for Inactive)
REMARK    1  A    between atoms: _1  and  _3
REMARK    2  A    between atoms: _3  and  _4
REMARK    3  A    between atoms: _3  and  _6
REMARK    4  A    between atoms: _6  and  _7
REMARK    5  A    between atoms: _7  and  _8
REMARK    6  A    between atoms: _8  and  _9
REMARK    7  A    between atoms: _18  and  _20
REMARK    8  A    between atoms: _20  and  _21
REMARK    9  A    between atoms: _20  and  _23
REMARK   10  A    between atoms: _23  and  _24
REMARK   11  A    between atoms: _27  and  _29
REMARK   12  A    between atoms: _29  and  _30
REMARK   13  A    between atoms: _29  and  _32
REMARK   14  A    between atoms: _32  and  _33
REMARK   15  A    between atoms: _36  and  _38
REMARK   16  A    between atoms: _38  and  _39
REMARK   17  A    between atoms: _38  and  _41
REMARK   18  A    between atoms: _41  and  _42
REMARK   19  A    between atoms: _45  and  _47
REMARK   20  A    between atoms: _47  and  _48
REMARK   21  A    between atoms: _47  and  _50
REMARK   22  A    between atoms: _50  and  _51
REMARK   23  A    between atoms: _54  and  _56
REMARK   24  A    between atoms: _56  and  _57
REMARK   25  A    between atoms: _56  and  _59
REMARK   26  A    between atoms: _59  and  _60
REMARK   27  A    between atoms: _63  and  _65
REMARK   28  A    between atoms: _65  and  _66
REMARK   29  A    between atoms: _68  and  _70
REMARK   30  A    between atoms: _70  and  _71
REMARK   31  A    between atoms: _74  and  _76
REMARK   32  A    between atoms: _76  and  _77
REMARK   33  A    between atoms: _76  and  _79
REMARK   34  A    between atoms: _79  and  _80
REMARK   35  A    between atoms: _83  and  _85
REMARK   36  A    between atoms: _85  and  _86
REMARK   37  A    between atoms: _85  and  _88
REMARK   38  A    between atoms: _88  and  _89
REMARK   39  A    between atoms: _92  and  _94
REMARK   40  A    between atoms: _94  and  _95
REMARK   41  A    between atoms: _94  and  _97
REMARK   42  A    between atoms: _97  and  _98
REMARK   43  A    between atoms: _101  and  _103
REMARK   44  A    between atoms: _103  and  _104
REMARK   45  A    between atoms: _103  and  _106
REMARK   46  A    between atoms: _109  and  _111
REMARK   47  A    between atoms: _111  and  _112
REMARK   48  A    between atoms: _111  and  _114
REMARK   49  A    between atoms: _114  and  _115
REMARK   50  A    between atoms: _118  and  _120
REMARK   51  A    between atoms: _120  and  _121
REMARK   52  A    between atoms: _120  and  _123
REMARK   53  A    between atoms: _123  and  _124
REMARK   54  A    between atoms: _124  and  _125
REMARK   55  A    between atoms: _125  and  _126
REMARK   56  A    between atoms: _126  and  _127
REMARK   57  A    between atoms: _131  and  _133
REMARK   58  A    between atoms: _133  and  _134
REMARK   59  A    between atoms: _133  and  _136
REMARK   60  A    between atoms: _136  and  _137
REMARK   61  A    between atoms: _137  and  _138
REMARK   62  A    between atoms: _140  and  _142
REMARK   63  A    between atoms: _142  and  _143
REMARK   64  A    between atoms: _142  and  _145
REMARK   65  A    between atoms: _145  and  _146
REMARK   66  A    between atoms: _149  and  _151
REMARK   67  A    between atoms: _151  and  _152
REMARK   68  A    between atoms: _154  and  _156
REMARK   69  A    between atoms: _156  and  _157
REMARK   70  A    between atoms: _159  and  _161
REMARK   71  A    between atoms: _161  and  _162
REMARK   72  A    between atoms: _161  and  _164
REMARK   73  A    between atoms: _164  and  _165
REMARK   74  A    between atoms: _168  and  _170
REMARK   75  A    between atoms: _170  and  _171
REMARK   76  A    between atoms: _173  and  _175
REMARK   77  A    between atoms: _175  and  _176
REMARK   78  A    between atoms: _178  and  _180
REMARK   79  A    between atoms: _180  and  _181
REMARK   80  A    between atoms: _180  and  _183
REMARK   81  A    between atoms: _183  and  _184
REMARK   82  A    between atoms: _190  and  _192
REMARK   83  A    between atoms: _192  and  _193
REMARK   84  A    between atoms: _192  and  _195
REMARK   85  A    between atoms: _195  and  _196
REMARK   86  A    between atoms: _199  and  _201
REMARK   87  A    between atoms: _201  and  _202
REMARK   88  A    between atoms: _201  and  _204
REMARK   89  A    between atoms: _207  and  _209
REMARK   90  A    between atoms: _209  and  _210
REMARK   91  A    between atoms: _209  and  _212
REMARK   92  A    between atoms: _212  and  _213
REMARK   93  A    between atoms: _217  and  _218
REMARK   94  A    between atoms: _223  and  _225
REMARK   95  A    between atoms: _225  and  _226
REMARK   96  A    between atoms: _225  and  _228
REMARK   97  A    between atoms: _228  and  _229
REMARK   98  A    between atoms: _233  and  _234
REMARK   99  A    between atoms: _239  and  _241
REMARK  100  A    between atoms: _241  and  _242
REMARK  101  A    between atoms: _241  and  _244
REMARK  102  A    between atoms: _247  and  _249
REMARK  103  A    between atoms: _249  and  _250
REMARK  104  A    between atoms: _249  and  _252
REMARK  105  A    between atoms: _252  and  _253
REMARK  106  A    between atoms: _258  and  _260
REMARK  107  A    between atoms: _260  and  _261
REMARK  108  A    between atoms: _260  and  _263
REMARK  109  A    between atoms: _263  and  _264
REMARK  110  A    between atoms: _267  and  _269
REMARK  111  A    between atoms: _269  and  _270
REMARK  112  A    between atoms: _269  and  _272
REMARK  113  A    between atoms: _272  and  _273
REMARK  114  A    between atoms: _276  and  _278
REMARK  115  A    between atoms: _278  and  _279
REMARK  116  A    between atoms: _281  and  _283
REMARK  117  A    between atoms: _283  and  _284
REMARK  118  A    between atoms: _283  and  _286
REMARK  119  A    between atoms: _286  and  _287
REMARK  120  A    between atoms: _287  and  _288
REMARK  121  A    between atoms: _288  and  _289
REMARK  122  A    between atoms: _298  and  _300
REMARK  123  A    between atoms: _300  and  _301
REMARK  124  A    between atoms: _300  and  _303
REMARK  125  A    between atoms: _303  and  _304
REMARK  126  A    between atoms: _309  and  _311
REMARK  127  A    between atoms: _311  and  _312
REMARK  128  A    between atoms: _311  and  _314
REMARK  129  A    between atoms: _314  and  _315
REMARK  130  A    between atoms: _315  and  _316
REMARK  131  A    between atoms: _316  and  _317
REMARK  132  A    between atoms: _326  and  _328
REMARK  133  A    between atoms: _328  and  _329
REMARK  134  A    between atoms: _328  and  _331
REMARK  135  A    between atoms: _331  and  _332
REMARK  136  A    between atoms: _335  and  _337
REMARK  137  A    between atoms: _337  and  _338
REMARK  138  A    between atoms: _337  and  _340
REMARK  139  A    between atoms: _340  and  _341
REMARK  140  A    between atoms: _344  and  _346
REMARK  141  A    between atoms: _346  and  _347
REMARK  142  A    between atoms: _346  and  _349
REMARK  143  A    between atoms: _349  and  _350
REMARK  144  A    between atoms: _353  and  _355
REMARK  145  A    between atoms: _355  and  _356
REMARK  146  A    between atoms: _355  and  _358
REMARK  147  A    between atoms: _358  and  _359
REMARK  148  A    between atoms: _362  and  _364
REMARK  149  A    between atoms: _364  and  _365
REMARK  150  A    between atoms: _364  and  _367
REMARK  151  A    between atoms: _367  and  _368
REMARK  152  A    between atoms: _371  and  _373
REMARK  153  A    between atoms: _373  and  _374
REMARK  154  A    between atoms: _376  and  _378
REMARK  155  A    between atoms: _378  and  _379
REMARK  156  A    between atoms: _382  and  _384
REMARK  157  A    between atoms: _384  and  _385
REMARK  158  A    between atoms: _384  and  _387
REMARK  159  A    between atoms: _387  and  _388
REMARK  160  A    between atoms: _391  and  _393
REMARK  161  A    between atoms: _393  and  _394
REMARK  162  A    between atoms: _393  and  _396
REMARK  163  A    between atoms: _396  and  _397
REMARK  164  A    between atoms: _400  and  _402
REMARK  165  A    between atoms: _402  and  _403
REMARK  166  A    between atoms: _402  and  _405
REMARK  167  A    between atoms: _405  and  _406
REMARK  168  A    between atoms: _409  and  _411
REMARK  169  A    between atoms: _411  and  _412
REMARK  170  A    between atoms: _411  and  _414
REMARK  171  A    between atoms: _417  and  _419
REMARK  172  A    between atoms: _419  and  _420
REMARK  173  A    between atoms: _419  and  _422
REMARK  174  A    between atoms: _422  and  _423
REMARK  175  A    between atoms: _426  and  _428
REMARK  176  A    between atoms: _428  and  _429
REMARK  177  A    between atoms: _428  and  _431
REMARK  178  A    between atoms: _431  and  _432
REMARK  179  A    between atoms: _432  and  _433
REMARK  180  A    between atoms: _433  and  _434
REMARK  181  A    between atoms: _434  and  _435
REMARK  182  A    between atoms: _439  and  _441
REMARK  183  A    between atoms: _441  and  _442
REMARK  184  A    between atoms: _441  and  _444
REMARK  185  A    between atoms: _444  and  _445
REMARK  186  A    between atoms: _445  and  _446
REMARK  187  A    between atoms: _448  and  _450
REMARK  188  A    between atoms: _450  and  _451
REMARK  189  A    between atoms: _450  and  _453
REMARK  190  A    between atoms: _453  and  _454
REMARK  191  A    between atoms: _457  and  _459
REMARK  192  A    between atoms: _459  and  _460
REMARK  193  A    between atoms: _462  and  _464
REMARK  194  A    between atoms: _464  and  _465
REMARK  195  A    between atoms: _467  and  _469
REMARK  196  A    between atoms: _469  and  _470
REMARK  197  A    between atoms: _469  and  _472
REMARK  198  A    between atoms: _472  and  _473
REMARK  199  A    between atoms: _476  and  _478
REMARK  200  A    between atoms: _478  and  _479
REMARK  201  A    between atoms: _481  and  _483
REMARK  202  A    between atoms: _483  and  _484
REMARK  203  A    between atoms: _486  and  _488
REMARK  204  A    between atoms: _488  and  _489
REMARK  205  A    between atoms: _488  and  _491
REMARK  206  A    between atoms: _491  and  _492
REMARK  207  A    between atoms: _498  and  _500
REMARK  208  A    between atoms: _500  and  _501
REMARK  209  A    between atoms: _500  and  _503
REMARK  210  A    between atoms: _503  and  _504
REMARK  211  A    between atoms: _507  and  _509
REMARK  212  A    between atoms: _509  and  _510
REMARK  213  A    between atoms: _509  and  _512
REMARK  214  A    between atoms: _515  and  _517
REMARK  215  A    between atoms: _517  and  _518
REMARK  216  A    between atoms: _517  and  _520
REMARK  217  A    between atoms: _520  and  _521
REMARK  218  A    between atoms: _525  and  _526
REMARK  219  A    between atoms: _531  and  _533
REMARK  220  A    between atoms: _533  and  _534
REMARK  221  A    between atoms: _533  and  _536
REMARK  222  A    between atoms: _536  and  _537
REMARK  223  A    between atoms: _541  and  _542
REMARK  224  A    between atoms: _547  and  _549
REMARK  225  A    between atoms: _549  and  _550
REMARK  226  A    between atoms: _549  and  _552
REMARK  227  A    between atoms: _555  and  _557
REMARK  228  A    between atoms: _557  and  _558
REMARK  229  A    between atoms: _557  and  _560
REMARK  230  A    between atoms: _560  and  _561
REMARK  231  A    between atoms: _566  and  _568
REMARK  232  A    between atoms: _568  and  _569
REMARK  233  A    between atoms: _568  and  _571
REMARK  234  A    between atoms: _571  and  _572
REMARK  235  A    between atoms: _575  and  _577
REMARK  236  A    between atoms: _577  and  _578
REMARK  237  A    between atoms: _577  and  _580
REMARK  238  A    between atoms: _580  and  _581
REMARK  239  A    between atoms: _584  and  _586
REMARK  240  A    between atoms: _586  and  _587
REMARK  241  A    between atoms: _589  and  _591
REMARK  242  A    between atoms: _591  and  _592
REMARK  243  A    between atoms: _591  and  _594
REMARK  244  A    between atoms: _594  and  _595
REMARK  245  A    between atoms: _595  and  _596
REMARK  246  A    between atoms: _596  and  _597
REMARK  247  A    between atoms: _606  and  _608
REMARK  248  A    between atoms: _608  and  _609
REMARK  249  A    between atoms: _608  and  _611
REMARK  250  A    between atoms: _611  and  _612
REMARK                            x       y       z     vdW  Elec       q    Type
REMARK                         _______ _______ _______ _____ _____    ______ ____
ROOT
ATOM      1  C   ALA A   6      11.238  30.102   5.719  0.00  0.00    +0.241 C 
ATOM      2  N   ASP A   7       9.907  30.107   5.706  0.00  0.00    -0.297 N 
ATOM      3  H   ASP A   7       9.389  29.205   5.710  0.00  0.00    +0.150 HD
ATOM      4  O   ALA A   6      11.907  31.135   5.698  0.00  0.00    -0.273 OA
ENDROOT
BRANCH   1   5
ATOM      5  CA  ALA A   6      11.924  28.741   5.762  0.00  0.00    +0.149 C 
ATOM      6  CB  ALA A   6      12.694  28.586   7.084  0.00  0.00    +0.031 C 
BRANCH   5   8
ATOM      7  C   GLY A   5      12.489  27.938   3.535  0.00  0.00    +0.243 C 
ATOM      8  N   ALA A   6      12.839  28.602   4.633  0.00  0.00    -0.297 N 
ATOM      9  H   ALA A   6      13.785  29.031   4.688  0.00  0.00    +0.150 HD
ATOM     10  O   GLY A   5      11.390  27.391   3.408  0.00  0.00    -0.273 OA
BRANCH   7  11
ATOM     11  CA  GLY A   5      13.530  27.869   2.431  0.00  0.00    +0.176 C 
BRANCH  11  13
ATOM     12  C   THR A   4      14.726  29.971   2.407  0.00  0.00    +0.243 C 
ATOM     13  N   GLY A   5      14.701  28.680   2.722  0.00  0.00    -0.295 N 
ATOM     14  H   GLY A   5      15.527  28.246   3.181  0.00  0.00    +0.150 HD
ATOM     15  O   THR A   4      13.785  30.554   1.853  0.00  0.00    -0.273 OA
BRANCH  12  16
ATOM     16  CA  THR A   4      15.996  30.726   2.765  0.00  0.00    +0.176 C 
BRANCH  16  19
ATOM     17  C   ASP A   3      16.438  29.859   4.989  0.00  0.00    +0.241 C 
ATOM     18  O   ASP A   3      15.357  30.262   5.395  0.00  0.00    -0.273 OA
ATOM     19  N   THR A   4      16.833  30.014   3.727  0.00  0.00    -0.295 N 
ATOM     20  H   THR A   4      17.748  29.624   3.423  0.00  0.00    +0.150 HD
BRANCH  17  21
ATOM     21  CA  ASP A   3      17.375  29.117   5.930  0.00  0.00    +0.160 C 
BRANCH  21  23
ATOM     22  C   LEU A   2      19.499  29.971   6.714  0.00  0.00    +0.241 C 
ATOM     23  N   ASP A   3      18.178  29.969   6.793  0.00  0.00    -0.297 N 
ATOM     24  H   ASP A   3      17.706  30.587   7.484  0.00  0.00    +0.150 HD
ATOM     25  O   LEU A   2      20.122  29.347   5.853  0.00  0.00    -0.273 OA
BRANCH  22  26
ATOM     26  CA  LEU A   2      20.221  30.807   7.754  0.00  0.00    +0.149 C 
BRANCH  26  29
ATOM     27  C   LEU A   1      20.072  29.138   9.518  0.00  0.00    +0.238 C 
ATOM     28  O   LEU A   1      18.895  29.429   9.742  0.00  0.00    -0.274 OA
ATOM     29  N   LEU A   2      20.809  29.768   8.602  0.00  0.00    -0.297 N 
ATOM     30  H   LEU A   2      21.812  29.519   8.489  0.00  0.00    +0.150 HD
BRANCH  27  31
ATOM     31  CA  LEU A   1      20.751  28.029  10.313  0.00  0.00    +0.145 C 
BRANCH  31  32
ATOM     32  N   LEU A   1      20.545  28.196  11.741  0.00  0.00    -0.238 NA
ATOM     33  H   LEU A   1      19.658  27.852  12.162  0.00  0.00    +0.142 HD
ENDBRANCH  31  32
BRANCH  31  34
ATOM     34  CB  LEU A   1      20.175  26.679   9.893  0.00  0.00    +0.026 C 
BRANCH  34  35
ATOM     35  CG  LEU A   1      20.318  26.247   8.437  0.00  0.00    +0.002 C 
ATOM     36  CD2 LEU A   1      19.533  24.957   8.236  0.00  0.00    +0.000 C 
ATOM     37  CD1 LEU A   1      21.784  26.036   8.100  0.00  0.00    +0.000 C 
ENDBRANCH  34  35
ENDBRANCH  31  34
ENDBRANCH  27  31
ENDBRANCH  26  29
BRANCH  26  38
ATOM     38  CB  LEU A   2      21.310  31.663   7.108  0.00  0.00    +0.029 C 
BRANCH  38  39
ATOM     39  CG  LEU A   2      22.178  32.387   8.138  0.00  0.00    +0.002 C 
ATOM     40  CD2 LEU A   2      21.293  33.205   9.074  0.00  0.00    +0.000 C 
ATOM     41  CD1 LEU A   2      23.179  33.279   7.420  0.00  0.00    +0.000 C 
ENDBRANCH  38  39
ENDBRANCH  26  38
ENDBRANCH  22  26
ENDBRANCH  21  23
BRANCH  21  42
ATOM     42  CB  ASP A   3      16.572  28.193   6.844  0.00  0.00    +0.143 C 
BRANCH  42  43
ATOM     43  CG  ASP A   3      15.921  27.056   6.103  0.00  0.00    +0.367 C 
ATOM     44  OD2 ASP A   3      15.504  26.101   6.782  0.00  0.00    -0.246 OA
ATOM     45  OD1 ASP A   3      15.829  27.121   4.861  0.00  0.00    -0.246 OA
ENDBRANCH  42  43
ENDBRANCH  21  42
ENDBRANCH  17  21
ENDBRANCH  16  19
BRANCH  16  46
ATOM     46  CB  THR A   4      16.759  31.027   1.463  0.00  0.00    +0.137 C 
ATOM     47  CG2 THR A   4      17.953  31.919   1.758  0.00  0.00    +0.034 C 
BRANCH  46  48
ATOM     48  OG1 THR A   4      17.200  29.801   0.864  0.00  0.00    -0.382 OA
ATOM     49  HG1 THR A   4      16.415  29.233   0.660  0.00  0.00    +0.210 HD
ENDBRANCH  46  48
ENDBRANCH  16  46
ENDBRANCH  12  16
ENDBRANCH  11  13
ENDBRANCH   7  11
ENDBRANCH   5   8
ENDBRANCH   1   5
BRANCH   2  50
ATOM     50  CA  ASP A   7       9.166  31.367   5.686  0.00  0.00    +0.160 C 
BRANCH  50  51
ATOM     51  C   ASP A   7       9.327  32.089   7.015  0.00  0.00    +0.241 C 
ATOM     52  N   ASP A   8       9.273  31.318   8.094  0.00  0.00    -0.297 N 
ATOM     53  H   ASP A   8       9.161  30.291   7.977  0.00  0.00    +0.150 HD
ATOM     54  O   ASP A   7       9.499  33.305   7.061  0.00  0.00    -0.273 OA
BRANCH  52  55
ATOM     55  CA  ASP A   8       9.366  31.871   9.434  0.00  0.00    +0.160 C 
BRANCH  55  56
ATOM     56  C   ASP A   8      10.617  31.406  10.166  0.00  0.00    +0.241 C 
ATOM     57  N   THR A   9      10.797  31.946  11.362  0.00  0.00    -0.295 N 
ATOM     58  H   THR A   9      10.096  32.630  11.712  0.00  0.00    +0.150 HD
ATOM     59  O   ASP A   8      11.386  30.582   9.672  0.00  0.00    -0.273 OA
BRANCH  57  60
ATOM     60  CA  THR A   9      11.933  31.621  12.202  0.00  0.00    +0.176 C 
BRANCH  60  61
ATOM     61  C   THR A   9      11.421  30.763  13.345  0.00  0.00    +0.243 C 
ATOM     62  O   THR A   9      10.458  31.122  14.018  0.00  0.00    -0.273 OA
ATOM     63  N   VAL A  10      12.050  29.613  13.544  0.00  0.00    -0.297 N 
ATOM     64  H   VAL A  10      12.848  29.348  12.932  0.00  0.00    +0.150 HD
BRANCH  63  65
ATOM     65  CA  VAL A  10      11.633  28.723  14.609  0.00  0.00    +0.149 C 
BRANCH  65  66
ATOM     66  C   VAL A  10      12.840  28.234  15.381  0.00  0.00    +0.241 C 
ATOM     67  N   LEU A  11      12.743  28.333  16.700  0.00  0.00    -0.298 N 
ATOM     68  H   LEU A  11      11.873  28.720  17.118  0.00  0.00    +0.150 HD
ATOM     69  O   VAL A  10      13.835  27.786  14.803  0.00  0.00    -0.273 OA
BRANCH  67  70
ATOM     70  CA  LEU A  11      13.823  27.914  17.574  0.00  0.00    +0.137 C 
BRANCH  70  71
ATOM     71  C   LEU A  11      13.357  26.788  18.480  0.00  0.00    +0.227 C 
ATOM     72  O   LEU A  11      12.161  26.647  18.749  0.00  0.00    -0.286 OA
ENDBRANCH  70  71
BRANCH  70  73
ATOM     73  CB  LEU A  11      14.288  29.091  18.427  0.00  0.00    +0.028 C 
BRANCH  73  74
ATOM     74  CG  LEU A  11      14.745  30.332  17.657  0.00  0.00    +0.002 C 
ATOM     75  CD2 LEU A  11      15.161  31.411  18.647  0.00  0.00    +0.000 C 
ATOM     76  CD1 LEU A  11      15.905  29.969  16.734  0.00  0.00    +0.000 C 
ENDBRANCH  73  74
ENDBRANCH  70  73
ENDBRANCH  67  70
ENDBRANCH  65  66
BRANCH  65  77
ATOM     77  CB  VAL A  10      10.831  27.514  14.068  0.00  0.00    +0.027 C 
ATOM     78  CG2 VAL A  10      10.392  26.627  15.228  0.00  0.00    +0.002 C 
ATOM     79  CG1 VAL A  10      11.660  26.721  13.075  0.00  0.00    +0.002 C 
ENDBRANCH  65  77
ENDBRANCH  63  65
ENDBRANCH  60  61
BRANCH  60  80
ATOM     80  CB  THR A   9      12.570  32.909  12.742  0.00  0.00    +0.137 C 
ATOM     81  CG2 THR A   9      13.592  32.609  13.830  0.00  0.00    +0.034 C 
BRANCH  80  82
ATOM     82  OG1 THR A   9      13.209  33.596  11.661  0.00  0.00    -0.382 OA
ATOM     83  HG1 THR A   9      12.537  33.818  10.969  0.00  0.00    +0.210 HD
ENDBRANCH  80  82
ENDBRANCH  60  80
ENDBRANCH  57  60
ENDBRANCH  55  56
BRANCH  55  84
ATOM     84  CB  ASP A   8       8.130  31.471  10.250  0.00  0.00    +0.143 C 
BRANCH  84  85
ATOM     85  CG  ASP A   8       6.818  31.806   9.545  0.00  0.00    +0.367 C 
ATOM     86  OD2 ASP A   8       6.004  30.877   9.324  0.00  0.00    -0.246 OA
ATOM     87  OD1 ASP A   8       6.592  32.990   9.221  0.00  0.00    -0.246 OA
ENDBRANCH  84  85
ENDBRANCH  55  84
ENDBRANCH  52  55
ENDBRANCH  50  51
BRANCH  50  88
ATOM     88  CB  ASP A   7       7.668  31.126   5.465  0.00  0.00    +0.143 C 
BRANCH  88  89
ATOM     89  CG  ASP A   7       7.371  30.462   4.143  0.00  0.00    +0.367 C 
ATOM     90  OD2 ASP A   7       6.437  29.639   4.096  0.00  0.00    -0.246 OA
ATOM     91  OD1 ASP A   7       8.059  30.774   3.154  0.00  0.00    -0.246 OA
ENDBRANCH  88  89
ENDBRANCH  50  88
ENDBRANCH   2  50
TORSDOF 39
REMARK  Name = ../refined-set-2016/1w5x/1w5x_pocket.pdb
REMARK  250 active torsions:
REMARK  status: ('A' for Active; 'I' for Inactive)
REMARK    1  A    between atoms: _1  and  _3
REMARK    2  A    between atoms: _3  and  _4
REMARK    3  A    between atoms: _3  and  _6
REMARK    4  A    between atoms: _6  and  _7
REMARK    5  A    between atoms: _7  and  _8
REMARK    6  A    between atoms: _8  and  _9
REMARK    7  A    between atoms: _18  and  _20
REMARK    8  A    between atoms: _20  and  _21
REMARK    9  A    between atoms: _20  and  _23
REMARK   10  A    between atoms: _23  and  _24
REMARK   11  A    between atoms: _27  and  _29
REMARK   12  A    between atoms: _29  and  _30
REMARK   13  A    between atoms: _29  and  _32
REMARK   14  A    between atoms: _32  and  _33
REMARK   15  A    between atoms: _36  and  _38
REMARK   16  A    between atoms: _38  and  _39
REMARK   17  A    between atoms: _38  and  _41
REMARK   18  A    between atoms: _41  and  _42
REMARK   19  A    between atoms: _45  and  _47
REMARK   20  A    between atoms: _47  and  _48
REMARK   21  A    between atoms: _47  and  _50
REMARK   22  A    between atoms: _50  and  _51
REMARK   23  A    between atoms: _54  and  _56
REMARK   24  A    between atoms: _56  and  _57
REMARK   25  A    between atoms: _56  and  _59
REMARK   26  A    between atoms: _59  and  _60
REMARK   27  A    between atoms: _63  and  _65
REMARK   28  A    between atoms: _65  and  _66
REMARK   29  A    between atoms: _68  and  _70
REMARK   30  A    between atoms: _70  and  _71
REMARK   31  A    between atoms: _74  and  _76
REMARK   32  A    between atoms: _76  and  _77
REMARK   33  A    between atoms: _76  and  _79
REMARK   34  A    between atoms: _79  and  _80
REMARK   35  A    between atoms: _83  and  _85
REMARK   36  A    between atoms: _85  and  _86
REMARK   37  A    between atoms: _85  and  _88
REMARK   38  A    between atoms: _88  and  _89
REMARK   39  A    between atoms: _92  and  _94
REMARK   40  A    between atoms: _94  and  _95
REMARK   41  A    between atoms: _94  and  _97
REMARK   42  A    between atoms: _97  and  _98
REMARK   43  A    between atoms: _101  and  _103
REMARK   44  A    between atoms: _103  and  _104
REMARK   45  A    between atoms: _103  and  _106
REMARK   46  A    between atoms: _109  and  _111
REMARK   47  A    between atoms: _111  and  _112
REMARK   48  A    between atoms: _111  and  _114
REMARK   49  A    between atoms: _114  and  _115
REMARK   50  A    between atoms: _118  and  _120
REMARK   51  A    between atoms: _120  and  _121
REMARK   52  A    between atoms: _120  and  _123
REMARK   53  A    between atoms: _123  and  _124
REMARK   54  A    between atoms: _124  and  _125
REMARK   55  A    between atoms: _125  and  _126
REMARK   56  A    between atoms: _126  and  _127
REMARK   57  A    between atoms: _131  and  _133
REMARK   58  A    between atoms: _133  and  _134
REMARK   59  A    between atoms: _133  and  _136
REMARK   60  A    between atoms: _136  and  _137
REMARK   61  A    between atoms: _137  and  _138
REMARK   62  A    between atoms: _140  and  _142
REMARK   63  A    between atoms: _142  and  _143
REMARK   64  A    between atoms: _142  and  _145
REMARK   65  A    between atoms: _145  and  _146
REMARK   66  A    between atoms: _149  and  _151
REMARK   67  A    between atoms: _151  and  _152
REMARK   68  A    between atoms: _154  and  _156
REMARK   69  A    between atoms: _156  and  _157
REMARK   70  A    between atoms: _159  and  _161
REMARK   71  A    between atoms: _161  and  _162
REMARK   72  A    between atoms: _161  and  _164
REMARK   73  A    between atoms: _164  and  _165
REMARK   74  A    between atoms: _168  and  _170
REMARK   75  A    between atoms: _170  and  _171
REMARK   76  A    between atoms: _173  and  _175
REMARK   77  A    between atoms: _175  and  _176
REMARK   78  A    between atoms: _178  and  _180
REMARK   79  A    between atoms: _180  and  _181
REMARK   80  A    between atoms: _180  and  _183
REMARK   81  A    between atoms: _183  and  _184
REMARK   82  A    between atoms: _190  and  _192
REMARK   83  A    between atoms: _192  and  _193
REMARK   84  A    between atoms: _192  and  _195
REMARK   85  A    between atoms: _195  and  _196
REMARK   86  A    between atoms: _199  and  _201
REMARK   87  A    between atoms: _201  and  _202
REMARK   88  A    between atoms: _201  and  _204
REMARK   89  A    between atoms: _207  and  _209
REMARK   90  A    between atoms: _209  and  _210
REMARK   91  A    between atoms: _209  and  _212
REMARK   92  A    between atoms: _212  and  _213
REMARK   93  A    between atoms: _217  and  _218
REMARK   94  A    between atoms: _223  and  _225
REMARK   95  A    between atoms: _225  and  _226
REMARK   96  A    between atoms: _225  and  _228
REMARK   97  A    between atoms: _228  and  _229
REMARK   98  A    between atoms: _233  and  _234
REMARK   99  A    between atoms: _239  and  _241
REMARK  100  A    between atoms: _241  and  _242
REMARK  101  A    between atoms: _241  and  _244
REMARK  102  A    between atoms: _247  and  _249
REMARK  103  A    between atoms: _249  and  _250
REMARK  104  A    between atoms: _249  and  _252
REMARK  105  A    between atoms: _252  and  _253
REMARK  106  A    between atoms: _258  and  _260
REMARK  107  A    between atoms: _260  and  _261
REMARK  108  A    between atoms: _260  and  _263
REMARK  109  A    between atoms: _263  and  _264
REMARK  110  A    between atoms: _267  and  _269
REMARK  111  A    between atoms: _269  and  _270
REMARK  112  A    between atoms: _269  and  _272
REMARK  113  A    between atoms: _272  and  _273
REMARK  114  A    between atoms: _276  and  _278
REMARK  115  A    between atoms: _278  and  _279
REMARK  116  A    between atoms: _281  and  _283
REMARK  117  A    between atoms: _283  and  _284
REMARK  118  A    between atoms: _283  and  _286
REMARK  119  A    between atoms: _286  and  _287
REMARK  120  A    between atoms: _287  and  _288
REMARK  121  A    between atoms: _288  and  _289
REMARK  122  A    between atoms: _298  and  _300
REMARK  123  A    between atoms: _300  and  _301
REMARK  124  A    between atoms: _300  and  _303
REMARK  125  A    between atoms: _303  and  _304
REMARK  126  A    between atoms: _309  and  _311
REMARK  127  A    between atoms: _311  and  _312
REMARK  128  A    between atoms: _311  and  _314
REMARK  129  A    between atoms: _314  and  _315
REMARK  130  A    between atoms: _315  and  _316
REMARK  131  A    between atoms: _316  and  _317
REMARK  132  A    between atoms: _326  and  _328
REMARK  133  A    between atoms: _328  and  _329
REMARK  134  A    between atoms: _328  and  _331
REMARK  135  A    between atoms: _331  and  _332
REMARK  136  A    between atoms: _335  and  _337
REMARK  137  A    between atoms: _337  and  _338
REMARK  138  A    between atoms: _337  and  _340
REMARK  139  A    between atoms: _340  and  _341
REMARK  140  A    between atoms: _344  and  _346
REMARK  141  A    between atoms: _346  and  _347
REMARK  142  A    between atoms: _346  and  _349
REMARK  143  A    between atoms: _349  and  _350
REMARK  144  A    between atoms: _353  and  _355
REMARK  145  A    between atoms: _355  and  _356
REMARK  146  A    between atoms: _355  and  _358
REMARK  147  A    between atoms: _358  and  _359
REMARK  148  A    between atoms: _362  and  _364
REMARK  149  A    between atoms: _364  and  _365
REMARK  150  A    between atoms: _364  and  _367
REMARK  151  A    between atoms: _367  and  _368
REMARK  152  A    between atoms: _371  and  _373
REMARK  153  A    between atoms: _373  and  _374
REMARK  154  A    between atoms: _376  and  _378
REMARK  155  A    between atoms: _378  and  _379
REMARK  156  A    between atoms: _382  and  _384
REMARK  157  A    between atoms: _384  and  _385
REMARK  158  A    between atoms: _384  and  _387
REMARK  159  A    between atoms: _387  and  _388
REMARK  160  A    between atoms: _391  and  _393
REMARK  161  A    between atoms: _393  and  _394
REMARK  162  A    between atoms: _393  and  _396
REMARK  163  A    between atoms: _396  and  _397
REMARK  164  A    between atoms: _400  and  _402
REMARK  165  A    between atoms: _402  and  _403
REMARK  166  A    between atoms: _402  and  _405
REMARK  167  A    between atoms: _405  and  _406
REMARK  168  A    between atoms: _409  and  _411
REMARK  169  A    between atoms: _411  and  _412
REMARK  170  A    between atoms: _411  and  _414
REMARK  171  A    between atoms: _417  and  _419
REMARK  172  A    between atoms: _419  and  _420
REMARK  173  A    between atoms: _419  and  _422
REMARK  174  A    between atoms: _422  and  _423
REMARK  175  A    between atoms: _426  and  _428
REMARK  176  A    between atoms: _428  and  _429
REMARK  177  A    between atoms: _428  and  _431
REMARK  178  A    between atoms: _431  and  _432
REMARK  179  A    between atoms: _432  and  _433
REMARK  180  A    between atoms: _433  and  _434
REMARK  181  A    between atoms: _434  and  _435
REMARK  182  A    between atoms: _439  and  _441
REMARK  183  A    between atoms: _441  and  _442
REMARK  184  A    between atoms: _441  and  _444
REMARK  185  A    between atoms: _444  and  _445
REMARK  186  A    between atoms: _445  and  _446
REMARK  187  A    between atoms: _448  and  _450
REMARK  188  A    between atoms: _450  and  _451
REMARK  189  A    between atoms: _450  and  _453
REMARK  190  A    between atoms: _453  and  _454
REMARK  191  A    between atoms: _457  and  _459
REMARK  192  A    between atoms: _459  and  _460
REMARK  193  A    between atoms: _462  and  _464
REMARK  194  A    between atoms: _464  and  _465
REMARK  195  A    between atoms: _467  and  _469
REMARK  196  A    between atoms: _469  and  _470
REMARK  197  A    between atoms: _469  and  _472
REMARK  198  A    between atoms: _472  and  _473
REMARK  199  A    between atoms: _476  and  _478
REMARK  200  A    between atoms: _478  and  _479
REMARK  201  A    between atoms: _481  and  _483
REMARK  202  A    between atoms: _483  and  _484
REMARK  203  A    between atoms: _486  and  _488
REMARK  204  A    between atoms: _488  and  _489
REMARK  205  A    between atoms: _488  and  _491
REMARK  206  A    between atoms: _491  and  _492
REMARK  207  A    between atoms: _498  and  _500
REMARK  208  A    between atoms: _500  and  _501
REMARK  209  A    between atoms: _500  and  _503
REMARK  210  A    between atoms: _503  and  _504
REMARK  211  A    between atoms: _507  and  _509
REMARK  212  A    between atoms: _509  and  _510
REMARK  213  A    between atoms: _509  and  _512
REMARK  214  A    between atoms: _515  and  _517
REMARK  215  A    between atoms: _517  and  _518
REMARK  216  A    between atoms: _517  and  _520
REMARK  217  A    between atoms: _520  and  _521
REMARK  218  A    between atoms: _525  and  _526
REMARK  219  A    between atoms: _531  and  _533
REMARK  220  A    between atoms: _533  and  _534
REMARK  221  A    between atoms: _533  and  _536
REMARK  222  A    between atoms: _536  and  _537
REMARK  223  A    between atoms: _541  and  _542
REMARK  224  A    between atoms: _547  and  _549
REMARK  225  A    between atoms: _549  and  _550
REMARK  226  A    between atoms: _549  and  _552
REMARK  227  A    between atoms: _555  and  _557
REMARK  228  A    between atoms: _557  and  _558
REMARK  229  A    between atoms: _557  and  _560
REMARK  230  A    between atoms: _560  and  _561
REMARK  231  A    between atoms: _566  and  _568
REMARK  232  A    between atoms: _568  and  _569
REMARK  233  A    between atoms: _568  and  _571
REMARK  234  A    between atoms: _571  and  _572
REMARK  235  A    between atoms: _575  and  _577
REMARK  236  A    between atoms: _577  and  _578
REMARK  237  A    between atoms: _577  and  _580
REMARK  238  A    between atoms: _580  and  _581
REMARK  239  A    between atoms: _584  and  _586
REMARK  240  A    between atoms: _586  and  _587
REMARK  241  A    between atoms: _589  and  _591
REMARK  242  A    between atoms: _591  and  _592
REMARK  243  A    between atoms: _591  and  _594
REMARK  244  A    between atoms: _594  and  _595
REMARK  245  A    between atoms: _595  and  _596
REMARK  246  A    between atoms: _596  and  _597
REMARK  247  A    between atoms: _606  and  _608
REMARK  248  A    between atoms: _608  and  _609
REMARK  249  A    between atoms: _608  and  _611
REMARK  250  A    between atoms: _611  and  _612
REMARK                            x       y       z     vdW  Elec       q    Type
REMARK                         _______ _______ _______ _____ _____    ______ ____
ROOT
ATOM      1  C   GLY A   5       8.040  19.782   5.670  0.00  0.00    +0.243 C 
ATOM      2  O   GLY A   5       7.038  19.074   5.549  0.00  0.00    -0.273 OA
ATOM      3  N   ILE A   6       9.262  19.350   5.388  0.00  0.00    -0.297 N 
ATOM      4  H   ILE A   6      10.076  19.991   5.479  0.00  0.00    +0.150 HD
ENDROOT
BRANCH   3   5
ATOM      5  CA  ILE A   6       9.460  17.982   4.952  0.00  0.00    +0.149 C 
BRANCH   5   6
ATOM      6  C   ILE A   6       9.117  17.110   6.154  0.00  0.00    +0.241 C 
ATOM      7  O   ILE A   6       9.575  17.371   7.264  0.00  0.00    -0.273 OA
ATOM      8  N   GLY A   7       8.301  16.088   5.938  0.00  0.00    -0.295 N 
ATOM      9  H   GLY A   7       7.916  15.919   4.987  0.00  0.00    +0.150 HD
BRANCH   8  10
ATOM     10  CA  GLY A   7       7.948  15.206   7.034  0.00  0.00    +0.176 C 
BRANCH  10  11
ATOM     11  C   GLY A   7       6.597  15.504   7.649  0.00  0.00    +0.243 C 
ATOM     12  O   GLY A   7       6.007  14.646   8.300  0.00  0.00    -0.273 OA
ATOM     13  N   GLY A   8       6.104  16.721   7.455  0.00  0.00    -0.295 N 
ATOM     14  H   GLY A   8       6.642  17.422   6.906  0.00  0.00    +0.150 HD
BRANCH  13  15
ATOM     15  CA  GLY A   8       4.812  17.068   8.012  0.00  0.00    +0.176 C 
BRANCH  15  16
ATOM     16  C   GLY A   8       4.826  18.339   8.834  0.00  0.00    +0.243 C 
ATOM     17  N   PHE A   9       3.854  18.455   9.734  0.00  0.00    -0.297 N 
ATOM     18  H   PHE A   9       3.172  17.677   9.843  0.00  0.00    +0.150 HD
ATOM     19  O   GLY A   8       5.710  19.186   8.676  0.00  0.00    -0.273 OA
BRANCH  17  20
ATOM     20  CA  PHE A   9       3.716  19.635  10.570  0.00  0.00    +0.153 C 
BRANCH  20  21
ATOM     21  C   PHE A   9       4.071  19.423  12.031  0.00  0.00    +0.241 C 
ATOM     22  N   ILE A  10       4.437  20.516  12.687  0.00  0.00    -0.298 N 
ATOM     23  H   ILE A  10       4.511  21.415  12.169  0.00  0.00    +0.150 HD
ATOM     24  O   PHE A   9       4.013  18.308  12.552  0.00  0.00    -0.273 OA
BRANCH  22  25
ATOM     25  CA  ILE A  10       4.738  20.493  14.110  0.00  0.00    +0.137 C 
BRANCH  25  26
ATOM     26  C   ILE A  10       4.014  21.689  14.697  0.00  0.00    +0.227 C 
ATOM     27  O   ILE A  10       3.769  22.680  14.004  0.00  0.00    -0.286 OA
ENDBRANCH  25  26
BRANCH  25  28
ATOM     28  CB  ILE A  10       6.254  20.615  14.417  0.00  0.00    +0.026 C 
ATOM     29  CG2 ILE A  10       6.970  19.331  14.003  0.00  0.00    +0.002 C 
BRANCH  28  30
ATOM     30  CG1 ILE A  10       6.842  21.839  13.715  0.00  0.00    +0.002 C 
ATOM     31  CD1 ILE A  10       8.250  22.180  14.171  0.00  0.00    +0.000 C 
ENDBRANCH  28  30
ENDBRANCH  25  28
ENDBRANCH  22  25
ENDBRANCH  20  21
BRANCH  20  32
ATOM     32  CB  PHE A   9       2.275  20.154  10.516  0.00  0.00    +0.055 C 
BRANCH  32  33
ATOM     33  CG  PHE A   9       1.851  20.660   9.171  0.00  0.00    -0.020 A 
ATOM     34  CD2 PHE A   9       1.606  22.015   8.978  0.00  0.00    -0.004 A 
ATOM     35  CE2 PHE A   9       1.181  22.497   7.745  0.00  0.00    -0.000 A 
ATOM     36  CZ  PHE A   9       0.997  21.615   6.683  0.00  0.00    -0.000 A 
ATOM     37  CE1 PHE A   9       1.241  20.256   6.864  0.00  0.00    -0.000 A 
ATOM     38  CD1 PHE A   9       1.667  19.784   8.105  0.00  0.00    -0.004 A 
ENDBRANCH  32  33
ENDBRANCH  20  32
ENDBRANCH  17  20
ENDBRANCH  15  16
ENDBRANCH  13  15
ENDBRANCH  10  11
ENDBRANCH   8  10
ENDBRANCH   5   6
BRANCH   5  39
ATOM     39  CB  ILE A   6      10.929  17.713   4.547  0.00  0.00    +0.027 C 
ATOM     40  CG2 ILE A   6      11.191  16.221   4.486  0.00  0.00    +0.002 C 
BRANCH  39  41
ATOM     41  CG1 ILE A   6      11.231  18.359   3.193  0.00  0.00    +0.002 C 
ATOM     42  CD1 ILE A   6      11.612  19.807   3.286  0.00  0.00    +0.000 C 
ENDBRANCH  39  41
ENDBRANCH   5  39
ENDBRANCH   3   5
BRANCH   1  43
ATOM     43  CA  GLY A   5       7.918  21.207   6.153  0.00  0.00    +0.176 C 
BRANCH  43  45
ATOM     44  C   GLY A   4       5.974  22.373   6.976  0.00  0.00    +0.243 C 
ATOM     45  N   GLY A   5       6.719  21.277   6.958  0.00  0.00    -0.295 N 
ATOM     46  H   GLY A   5       6.437  20.456   7.531  0.00  0.00    +0.150 HD
ATOM     47  O   GLY A   4       6.255  23.397   6.349  0.00  0.00    -0.273 OA
BRANCH  44  48
ATOM     48  CA  GLY A   4       4.740  22.289   7.839  0.00  0.00    +0.176 C 
BRANCH  48  51
ATOM     49  C   ILE A   3       4.437  23.530   9.874  0.00  0.00    +0.241 C 
ATOM     50  O   ILE A   3       4.709  22.546  10.558  0.00  0.00    -0.273 OA
ATOM     51  N   GLY A   4       4.428  23.512   8.548  0.00  0.00    -0.295 N 
ATOM     52  H   GLY A   4       4.197  24.376   8.018  0.00  0.00    +0.150 HD
BRANCH  49  53
ATOM     53  CA  ILE A   3       4.063  24.849  10.520  0.00  0.00    +0.149 C 
BRANCH  53  55
ATOM     54  C   MET A   2       2.000  25.102  11.738  0.00  0.00    +0.241 C 
ATOM     55  N   ILE A   3       3.213  24.569  11.671  0.00  0.00    -0.297 N 
ATOM     56  H   ILE A   3       3.556  23.954  12.436  0.00  0.00    +0.150 HD
ATOM     57  O   MET A   2       1.577  25.882  10.887  0.00  0.00    -0.273 OA
BRANCH  54  58
ATOM     58  CA  MET A   2       1.144  24.742  12.945  0.00  0.00    +0.149 C 
BRANCH  58  61
ATOM     59  C   LYS A   1       1.052  26.357  14.746  0.00  0.00    +0.238 C 
ATOM     60  O   LYS A   1       1.770  25.669  15.472  0.00  0.00    -0.274 OA
ATOM     61  N   MET A   2       0.687  25.989  13.527  0.00  0.00    -0.297 N 
ATOM     62  H   MET A   2       0.059  26.608  12.975  0.00  0.00    +0.150 HD
BRANCH  59  63
ATOM     63  CA  LYS A   1       0.520  27.696  15.222  0.00  0.00    +0.145 C 
BRANCH  63  64
ATOM     64  N   LYS A   1       0.482  27.706  16.672  0.00  0.00    -0.238 NA
ATOM     65  H   LYS A   1       1.170  27.138  17.206  0.00  0.00    +0.142 HD
ENDBRANCH  63  64
BRANCH  63  66
ATOM     66  CB  LYS A   1       1.424  28.827  14.711  0.00  0.00    +0.026 C 
BRANCH  66  67
ATOM     67  CG  LYS A   1       1.475  28.953  13.194  0.00  0.00    -0.000 C 
BRANCH  67  68
ATOM     68  CD  LYS A   1       2.319  30.146  12.759  0.00  0.00    -0.024 C 
BRANCH  68  69
ATOM     69  CE  LYS A   1       2.271  30.323  11.245  0.00  0.00    -0.086 C 
BRANCH  69  70
ATOM     70  NZ  LYS A   1       3.020  31.525  10.792  0.00  0.00    +0.380 N 
ATOM     71  HZ1 LYS A   1       2.608  32.374  11.229  0.00  0.00    -0.089 HD
ATOM     72  HZ2 LYS A   1       4.017  31.438  11.075  0.00  0.00    -0.089 HD
ATOM     73  HZ3 LYS A   1       2.957  31.601   9.757  0.00  0.00    -0.089 HD
ENDBRANCH  69  70
ENDBRANCH  68  69
ENDBRANCH  67  68
ENDBRANCH  66  67
ENDBRANCH  63  66
ENDBRANCH  59  63
ENDBRANCH  58  61
BRANCH  58  74
ATOM     74  CB  MET A   2      -0.055  23.910  12.491  0.00  0.00    +0.041 C 
BRANCH  74  75
ATOM     75  CG  MET A   2       0.127  22.426  12.649  0.00  0.00    +0.060 C 
BRANCH  75  76
ATOM     76  SD  MET A   2       0.110  21.957  14.389  0.00  0.00    -0.139 S 
ATOM     77  CE  MET A   2      -1.662  21.831  14.668  0.00  0.00    +0.069 C 
ENDBRANCH  75  76
ENDBRANCH  74  75
ENDBRANCH  58  74
ENDBRANCH  54  58
ENDBRANCH  53  55
BRANCH  53  78
ATOM     78  CB  ILE A   3       5.339  25.635  10.899  0.00  0.00    +0.027 C 
ATOM     79  CG2 ILE A   3       4.962  27.056  11.304  0.00  0.00    +0.002 C 
BRANCH  78  80
ATOM     80  CG1 ILE A   3       6.096  24.924  12.018  0.00  0.00    +0.002 C 
ATOM     81  CD1 ILE A   3       7.377  25.649  12.449  0.00  0.00    +0.000 C 
ENDBRANCH  78  80
ENDBRANCH  53  78
ENDBRANCH  49  53
ENDBRANCH  48  51
ENDBRANCH  44  48
ENDBRANCH  43  45
ENDBRANCH   1  43
TORSDOF 36
REMARK  Name = ../refined-set-2016/1w5x/1w5x_pocket.pdb
REMARK  250 active torsions:
REMARK  status: ('A' for Active; 'I' for Inactive)
REMARK    1  A    between atoms: _1  and  _3
REMARK    2  A    between atoms: _3  and  _4
REMARK    3  A    between atoms: _3  and  _6
REMARK    4  A    between atoms: _6  and  _7
REMARK    5  A    between atoms: _7  and  _8
REMARK    6  A    between atoms: _8  and  _9
REMARK    7  A    between atoms: _18  and  _20
REMARK    8  A    between atoms: _20  and  _21
REMARK    9  A    between atoms: _20  and  _23
REMARK   10  A    between atoms: _23  and  _24
REMARK   11  A    between atoms: _27  and  _29
REMARK   12  A    between atoms: _29  and  _30
REMARK   13  A    between atoms: _29  and  _32
REMARK   14  A    between atoms: _32  and  _33
REMARK   15  A    between atoms: _36  and  _38
REMARK   16  A    between atoms: _38  and  _39
REMARK   17  A    between atoms: _38  and  _41
REMARK   18  A    between atoms: _41  and  _42
REMARK   19  A    between atoms: _45  and  _47
REMARK   20  A    between atoms: _47  and  _48
REMARK   21  A    between atoms: _47  and  _50
REMARK   22  A    between atoms: _50  and  _51
REMARK   23  A    between atoms: _54  and  _56
REMARK   24  A    between atoms: _56  and  _57
REMARK   25  A    between atoms: _56  and  _59
REMARK   26  A    between atoms: _59  and  _60
REMARK   27  A    between atoms: _63  and  _65
REMARK   28  A    between atoms: _65  and  _66
REMARK   29  A    between atoms: _68  and  _70
REMARK   30  A    between atoms: _70  and  _71
REMARK   31  A    between atoms: _74  and  _76
REMARK   32  A    between atoms: _76  and  _77
REMARK   33  A    between atoms: _76  and  _79
REMARK   34  A    between atoms: _79  and  _80
REMARK   35  A    between atoms: _83  and  _85
REMARK   36  A    between atoms: _85  and  _86
REMARK   37  A    between atoms: _85  and  _88
REMARK   38  A    between atoms: _88  and  _89
REMARK   39  A    between atoms: _92  and  _94
REMARK   40  A    between atoms: _94  and  _95
REMARK   41  A    between atoms: _94  and  _97
REMARK   42  A    between atoms: _97  and  _98
REMARK   43  A    between atoms: _101  and  _103
REMARK   44  A    between atoms: _103  and  _104
REMARK   45  A    between atoms: _103  and  _106
REMARK   46  A    between atoms: _109  and  _111
REMARK   47  A    between atoms: _111  and  _112
REMARK   48  A    between atoms: _111  and  _114
REMARK   49  A    between atoms: _114  and  _115
REMARK   50  A    between atoms: _118  and  _120
REMARK   51  A    between atoms: _120  and  _121
REMARK   52  A    between atoms: _120  and  _123
REMARK   53  A    between atoms: _123  and  _124
REMARK   54  A    between atoms: _124  and  _125
REMARK   55  A    between atoms: _125  and  _126
REMARK   56  A    between atoms: _126  and  _127
REMARK   57  A    between atoms: _131  and  _133
REMARK   58  A    between atoms: _133  and  _134
REMARK   59  A    between atoms: _133  and  _136
REMARK   60  A    between atoms: _136  and  _137
REMARK   61  A    between atoms: _137  and  _138
REMARK   62  A    between atoms: _140  and  _142
REMARK   63  A    between atoms: _142  and  _143
REMARK   64  A    between atoms: _142  and  _145
REMARK   65  A    between atoms: _145  and  _146
REMARK   66  A    between atoms: _149  and  _151
REMARK   67  A    between atoms: _151  and  _152
REMARK   68  A    between atoms: _154  and  _156
REMARK   69  A    between atoms: _156  and  _157
REMARK   70  A    between atoms: _159  and  _161
REMARK   71  A    between atoms: _161  and  _162
REMARK   72  A    between atoms: _161  and  _164
REMARK   73  A    between atoms: _164  and  _165
REMARK   74  A    between atoms: _168  and  _170
REMARK   75  A    between atoms: _170  and  _171
REMARK   76  A    between atoms: _173  and  _175
REMARK   77  A    between atoms: _175  and  _176
REMARK   78  A    between atoms: _178  and  _180
REMARK   79  A    between atoms: _180  and  _181
REMARK   80  A    between atoms: _180  and  _183
REMARK   81  A    between atoms: _183  and  _184
REMARK   82  A    between atoms: _190  and  _192
REMARK   83  A    between atoms: _192  and  _193
REMARK   84  A    between atoms: _192  and  _195
REMARK   85  A    between atoms: _195  and  _196
REMARK   86  A    between atoms: _199  and  _201
REMARK   87  A    between atoms: _201  and  _202
REMARK   88  A    between atoms: _201  and  _204
REMARK   89  A    between atoms: _207  and  _209
REMARK   90  A    between atoms: _209  and  _210
REMARK   91  A    between atoms: _209  and  _212
REMARK   92  A    between atoms: _212  and  _213
REMARK   93  A    between atoms: _217  and  _218
REMARK   94  A    between atoms: _223  and  _225
REMARK   95  A    between atoms: _225  and  _226
REMARK   96  A    between atoms: _225  and  _228
REMARK   97  A    between atoms: _228  and  _229
REMARK   98  A    between atoms: _233  and  _234
REMARK   99  A    between atoms: _239  and  _241
REMARK  100  A    between atoms: _241  and  _242
REMARK  101  A    between atoms: _241  and  _244
REMARK  102  A    between atoms: _247  and  _249
REMARK  103  A    between atoms: _249  and  _250
REMARK  104  A    between atoms: _249  and  _252
REMARK  105  A    between atoms: _252  and  _253
REMARK  106  A    between atoms: _258  and  _260
REMARK  107  A    between atoms: _260  and  _261
REMARK  108  A    between atoms: _260  and  _263
REMARK  109  A    between atoms: _263  and  _264
REMARK  110  A    between atoms: _267  and  _269
REMARK  111  A    between atoms: _269  and  _270
REMARK  112  A    between atoms: _269  and  _272
REMARK  113  A    between atoms: _272  and  _273
REMARK  114  A    between atoms: _276  and  _278
REMARK  115  A    between atoms: _278  and  _279
REMARK  116  A    between atoms: _281  and  _283
REMARK  117  A    between atoms: _283  and  _284
REMARK  118  A    between atoms: _283  and  _286
REMARK  119  A    between atoms: _286  and  _287
REMARK  120  A    between atoms: _287  and  _288
REMARK  121  A    between atoms: _288  and  _289
REMARK  122  A    between atoms: _298  and  _300
REMARK  123  A    between atoms: _300  and  _301
REMARK  124  A    between atoms: _300  and  _303
REMARK  125  A    between atoms: _303  and  _304
REMARK  126  A    between atoms: _309  and  _311
REMARK  127  A    between atoms: _311  and  _312
REMARK  128  A    between atoms: _311  and  _314
REMARK  129  A    between atoms: _314  and  _315
REMARK  130  A    between atoms: _315  and  _316
REMARK  131  A    between atoms: _316  and  _317
REMARK  132  A    between atoms: _326  and  _328
REMARK  133  A    between atoms: _328  and  _329
REMARK  134  A    between atoms: _328  and  _331
REMARK  135  A    between atoms: _331  and  _332
REMARK  136  A    between atoms: _335  and  _337
REMARK  137  A    between atoms: _337  and  _338
REMARK  138  A    between atoms: _337  and  _340
REMARK  139  A    between atoms: _340  and  _341
REMARK  140  A    between atoms: _344  and  _346
REMARK  141  A    between atoms: _346  and  _347
REMARK  142  A    between atoms: _346  and  _349
REMARK  143  A    between atoms: _349  and  _350
REMARK  144  A    between atoms: _353  and  _355
REMARK  145  A    between atoms: _355  and  _356
REMARK  146  A    between atoms: _355  and  _358
REMARK  147  A    between atoms: _358  and  _359
REMARK  148  A    between atoms: _362  and  _364
REMARK  149  A    between atoms: _364  and  _365
REMARK  150  A    between atoms: _364  and  _367
REMARK  151  A    between atoms: _367  and  _368
REMARK  152  A    between atoms: _371  and  _373
REMARK  153  A    between atoms: _373  and  _374
REMARK  154  A    between atoms: _376  and  _378
REMARK  155  A    between atoms: _378  and  _379
REMARK  156  A    between atoms: _382  and  _384
REMARK  157  A    between atoms: _384  and  _385
REMARK  158  A    between atoms: _384  and  _387
REMARK  159  A    between atoms: _387  and  _388
REMARK  160  A    between atoms: _391  and  _393
REMARK  161  A    between atoms: _393  and  _394
REMARK  162  A    between atoms: _393  and  _396
REMARK  163  A    between atoms: _396  and  _397
REMARK  164  A    between atoms: _400  and  _402
REMARK  165  A    between atoms: _402  and  _403
REMARK  166  A    between atoms: _402  and  _405
REMARK  167  A    between atoms: _405  and  _406
REMARK  168  A    between atoms: _409  and  _411
REMARK  169  A    between atoms: _411  and  _412
REMARK  170  A    between atoms: _411  and  _414
REMARK  171  A    between atoms: _417  and  _419
REMARK  172  A    between atoms: _419  and  _420
REMARK  173  A    between atoms: _419  and  _422
REMARK  174  A    between atoms: _422  and  _423
REMARK  175  A    between atoms: _426  and  _428
REMARK  176  A    between atoms: _428  and  _429
REMARK  177  A    between atoms: _428  and  _431
REMARK  178  A    between atoms: _431  and  _432
REMARK  179  A    between atoms: _432  and  _433
REMARK  180  A    between atoms: _433  and  _434
REMARK  181  A    between atoms: _434  and  _435
REMARK  182  A    between atoms: _439  and  _441
REMARK  183  A    between atoms: _441  and  _442
REMARK  184  A    between atoms: _441  and  _444
REMARK  185  A    between atoms: _444  and  _445
REMARK  186  A    between atoms: _445  and  _446
REMARK  187  A    between atoms: _448  and  _450
REMARK  188  A    between atoms: _450  and  _451
REMARK  189  A    between atoms: _450  and  _453
REMARK  190  A    between atoms: _453  and  _454
REMARK  191  A    between atoms: _457  and  _459
REMARK  192  A    between atoms: _459  and  _460
REMARK  193  A    between atoms: _462  and  _464
REMARK  194  A    between atoms: _464  and  _465
REMARK  195  A    between atoms: _467  and  _469
REMARK  196  A    between atoms: _469  and  _470
REMARK  197  A    between atoms: _469  and  _472
REMARK  198  A    between atoms: _472  and  _473
REMARK  199  A    between atoms: _476  and  _478
REMARK  200  A    between atoms: _478  and  _479
REMARK  201  A    between atoms: _481  and  _483
REMARK  202  A    between atoms: _483  and  _484
REMARK  203  A    between atoms: _486  and  _488
REMARK  204  A    between atoms: _488  and  _489
REMARK  205  A    between atoms: _488  and  _491
REMARK  206  A    between atoms: _491  and  _492
REMARK  207  A    between atoms: _498  and  _500
REMARK  208  A    between atoms: _500  and  _501
REMARK  209  A    between atoms: _500  and  _503
REMARK  210  A    between atoms: _503  and  _504
REMARK  211  A    between atoms: _507  and  _509
REMARK  212  A    between atoms: _509  and  _510
REMARK  213  A    between atoms: _509  and  _512
REMARK  214  A    between atoms: _515  and  _517
REMARK  215  A    between atoms: _517  and  _518
REMARK  216  A    between atoms: _517  and  _520
REMARK  217  A    between atoms: _520  and  _521
REMARK  218  A    between atoms: _525  and  _526
REMARK  219  A    between atoms: _531  and  _533
REMARK  220  A    between atoms: _533  and  _534
REMARK  221  A    between atoms: _533  and  _536
REMARK  222  A    between atoms: _536  and  _537
REMARK  223  A    between atoms: _541  and  _542
REMARK  224  A    between atoms: _547  and  _549
REMARK  225  A    between atoms: _549  and  _550
REMARK  226  A    between atoms: _549  and  _552
REMARK  227  A    between atoms: _555  and  _557
REMARK  228  A    between atoms: _557  and  _558
REMARK  229  A    between atoms: _557  and  _560
REMARK  230  A    between atoms: _560  and  _561
REMARK  231  A    between atoms: _566  and  _568
REMARK  232  A    between atoms: _568  and  _569
REMARK  233  A    between atoms: _568  and  _571
REMARK  234  A    between atoms: _571  and  _572
REMARK  235  A    between atoms: _575  and  _577
REMARK  236  A    between atoms: _577  and  _578
REMARK  237  A    between atoms: _577  and  _580
REMARK  238  A    between atoms: _580  and  _581
REMARK  239  A    between atoms: _584  and  _586
REMARK  240  A    between atoms: _586  and  _587
REMARK  241  A    between atoms: _589  and  _591
REMARK  242  A    between atoms: _591  and  _592
REMARK  243  A    between atoms: _591  and  _594
REMARK  244  A    between atoms: _594  and  _595
REMARK  245  A    between atoms: _595  and  _596
REMARK  246  A    between atoms: _596  and  _597
REMARK  247  A    between atoms: _606  and  _608
REMARK  248  A    between atoms: _608  and  _609
REMARK  249  A    between atoms: _608  and  _611
REMARK  250  A    between atoms: _611  and  _612
REMARK                            x       y       z     vdW  Elec       q    Type
REMARK                         _______ _______ _______ _____ _____    ______ ____
ROOT
ATOM      1  CA  VAL A   1       4.867  25.734  17.761  0.00  0.00    +0.133 C 
ENDROOT
BRANCH   1   2
ATOM      2  CB  VAL A   1       5.798  26.365  16.694  0.00  0.00    +0.023 C 
ATOM      3  CG2 VAL A   1       6.632  25.290  16.020  0.00  0.00    +0.002 C 
ATOM      4  CG1 VAL A   1       4.964  27.111  15.654  0.00  0.00    +0.002 C 
ENDBRANCH   1   2
BRANCH   1   5
ATOM      5  N   VAL A   1       3.917  24.817  17.156  0.00  0.00    -0.239 NA
ATOM      6  H   VAL A   1       3.153  25.195  16.560  0.00  0.00    +0.142 HD
ENDBRANCH   1   5
BRANCH   1   7
ATOM      7  C   VAL A   1       4.120  26.860  18.458  0.00  0.00    +0.224 C 
ATOM      8  O   VAL A   1       2.909  27.013  18.295  0.00  0.00    -0.287 OA
ENDBRANCH   1   7
TORSDOF 3
REMARK  Name = ../refined-set-2016/1w5x/1w5x_pocket.pdb
REMARK  250 active torsions:
REMARK  status: ('A' for Active; 'I' for Inactive)
REMARK    1  A    between atoms: _1  and  _3
REMARK    2  A    between atoms: _3  and  _4
REMARK    3  A    between atoms: _3  and  _6
REMARK    4  A    between atoms: _6  and  _7
REMARK    5  A    between atoms: _7  and  _8
REMARK    6  A    between atoms: _8  and  _9
REMARK    7  A    between atoms: _18  and  _20
REMARK    8  A    between atoms: _20  and  _21
REMARK    9  A    between atoms: _20  and  _23
REMARK   10  A    between atoms: _23  and  _24
REMARK   11  A    between atoms: _27  and  _29
REMARK   12  A    between atoms: _29  and  _30
REMARK   13  A    between atoms: _29  and  _32
REMARK   14  A    between atoms: _32  and  _33
REMARK   15  A    between atoms: _36  and  _38
REMARK   16  A    between atoms: _38  and  _39
REMARK   17  A    between atoms: _38  and  _41
REMARK   18  A    between atoms: _41  and  _42
REMARK   19  A    between atoms: _45  and  _47
REMARK   20  A    between atoms: _47  and  _48
REMARK   21  A    between atoms: _47  and  _50
REMARK   22  A    between atoms: _50  and  _51
REMARK   23  A    between atoms: _54  and  _56
REMARK   24  A    between atoms: _56  and  _57
REMARK   25  A    between atoms: _56  and  _59
REMARK   26  A    between atoms: _59  and  _60
REMARK   27  A    between atoms: _63  and  _65
REMARK   28  A    between atoms: _65  and  _66
REMARK   29  A    between atoms: _68  and  _70
REMARK   30  A    between atoms: _70  and  _71
REMARK   31  A    between atoms: _74  and  _76
REMARK   32  A    between atoms: _76  and  _77
REMARK   33  A    between atoms: _76  and  _79
REMARK   34  A    between atoms: _79  and  _80
REMARK   35  A    between atoms: _83  and  _85
REMARK   36  A    between atoms: _85  and  _86
REMARK   37  A    between atoms: _85  and  _88
REMARK   38  A    between atoms: _88  and  _89
REMARK   39  A    between atoms: _92  and  _94
REMARK   40  A    between atoms: _94  and  _95
REMARK   41  A    between atoms: _94  and  _97
REMARK   42  A    between atoms: _97  and  _98
REMARK   43  A    between atoms: _101  and  _103
REMARK   44  A    between atoms: _103  and  _104
REMARK   45  A    between atoms: _103  and  _106
REMARK   46  A    between atoms: _109  and  _111
REMARK   47  A    between atoms: _111  and  _112
REMARK   48  A    between atoms: _111  and  _114
REMARK   49  A    between atoms: _114  and  _115
REMARK   50  A    between atoms: _118  and  _120
REMARK   51  A    between atoms: _120  and  _121
REMARK   52  A    between atoms: _120  and  _123
REMARK   53  A    between atoms: _123  and  _124
REMARK   54  A    between atoms: _124  and  _125
REMARK   55  A    between atoms: _125  and  _126
REMARK   56  A    between atoms: _126  and  _127
REMARK   57  A    between atoms: _131  and  _133
REMARK   58  A    between atoms: _133  and  _134
REMARK   59  A    between atoms: _133  and  _136
REMARK   60  A    between atoms: _136  and  _137
REMARK   61  A    between atoms: _137  and  _138
REMARK   62  A    between atoms: _140  and  _142
REMARK   63  A    between atoms: _142  and  _143
REMARK   64  A    between atoms: _142  and  _145
REMARK   65  A    between atoms: _145  and  _146
REMARK   66  A    between atoms: _149  and  _151
REMARK   67  A    between atoms: _151  and  _152
REMARK   68  A    between atoms: _154  and  _156
REMARK   69  A    between atoms: _156  and  _157
REMARK   70  A    between atoms: _159  and  _161
REMARK   71  A    between atoms: _161  and  _162
REMARK   72  A    between atoms: _161  and  _164
REMARK   73  A    between atoms: _164  and  _165
REMARK   74  A    between atoms: _168  and  _170
REMARK   75  A    between atoms: _170  and  _171
REMARK   76  A    between atoms: _173  and  _175
REMARK   77  A    between atoms: _175  and  _176
REMARK   78  A    between atoms: _178  and  _180
REMARK   79  A    between atoms: _180  and  _181
REMARK   80  A    between atoms: _180  and  _183
REMARK   81  A    between atoms: _183  and  _184
REMARK   82  A    between atoms: _190  and  _192
REMARK   83  A    between atoms: _192  and  _193
REMARK   84  A    between atoms: _192  and  _195
REMARK   85  A    between atoms: _195  and  _196
REMARK   86  A    between atoms: _199  and  _201
REMARK   87  A    between atoms: _201  and  _202
REMARK   88  A    between atoms: _201  and  _204
REMARK   89  A    between atoms: _207  and  _209
REMARK   90  A    between atoms: _209  and  _210
REMARK   91  A    between atoms: _209  and  _212
REMARK   92  A    between atoms: _212  and  _213
REMARK   93  A    between atoms: _217  and  _218
REMARK   94  A    between atoms: _223  and  _225
REMARK   95  A    between atoms: _225  and  _226
REMARK   96  A    between atoms: _225  and  _228
REMARK   97  A    between atoms: _228  and  _229
REMARK   98  A    between atoms: _233  and  _234
REMARK   99  A    between atoms: _239  and  _241
REMARK  100  A    between atoms: _241  and  _242
REMARK  101  A    between atoms: _241  and  _244
REMARK  102  A    between atoms: _247  and  _249
REMARK  103  A    between atoms: _249  and  _250
REMARK  104  A    between atoms: _249  and  _252
REMARK  105  A    between atoms: _252  and  _253
REMARK  106  A    between atoms: _258  and  _260
REMARK  107  A    between atoms: _260  and  _261
REMARK  108  A    between atoms: _260  and  _263
REMARK  109  A    between atoms: _263  and  _264
REMARK  110  A    between atoms: _267  and  _269
REMARK  111  A    between atoms: _269  and  _270
REMARK  112  A    between atoms: _269  and  _272
REMARK  113  A    between atoms: _272  and  _273
REMARK  114  A    between atoms: _276  and  _278
REMARK  115  A    between atoms: _278  and  _279
REMARK  116  A    between atoms: _281  and  _283
REMARK  117  A    between atoms: _283  and  _284
REMARK  118  A    between atoms: _283  and  _286
REMARK  119  A    between atoms: _286  and  _287
REMARK  120  A    between atoms: _287  and  _288
REMARK  121  A    between atoms: _288  and  _289
REMARK  122  A    between atoms: _298  and  _300
REMARK  123  A    between atoms: _300  and  _301
REMARK  124  A    between atoms: _300  and  _303
REMARK  125  A    between atoms: _303  and  _304
REMARK  126  A    between atoms: _309  and  _311
REMARK  127  A    between atoms: _311  and  _312
REMARK  128  A    between atoms: _311  and  _314
REMARK  129  A    between atoms: _314  and  _315
REMARK  130  A    between atoms: _315  and  _316
REMARK  131  A    between atoms: _316  and  _317
REMARK  132  A    between atoms: _326  and  _328
REMARK  133  A    between atoms: _328  and  _329
REMARK  134  A    between atoms: _328  and  _331
REMARK  135  A    between atoms: _331  and  _332
REMARK  136  A    between atoms: _335  and  _337
REMARK  137  A    between atoms: _337  and  _338
REMARK  138  A    between atoms: _337  and  _340
REMARK  139  A    between atoms: _340  and  _341
REMARK  140  A    between atoms: _344  and  _346
REMARK  141  A    between atoms: _346  and  _347
REMARK  142  A    between atoms: _346  and  _349
REMARK  143  A    between atoms: _349  and  _350
REMARK  144  A    between atoms: _353  and  _355
REMARK  145  A    between atoms: _355  and  _356
REMARK  146  A    between atoms: _355  and  _358
REMARK  147  A    between atoms: _358  and  _359
REMARK  148  A    between atoms: _362  and  _364
REMARK  149  A    between atoms: _364  and  _365
REMARK  150  A    between atoms: _364  and  _367
REMARK  151  A    between atoms: _367  and  _368
REMARK  152  A    between atoms: _371  and  _373
REMARK  153  A    between atoms: _373  and  _374
REMARK  154  A    between atoms: _376  and  _378
REMARK  155  A    between atoms: _378  and  _379
REMARK  156  A    between atoms: _382  and  _384
REMARK  157  A    between atoms: _384  and  _385
REMARK  158  A    between atoms: _384  and  _387
REMARK  159  A    between atoms: _387  and  _388
REMARK  160  A    between atoms: _391  and  _393
REMARK  161  A    between atoms: _393  and  _394
REMARK  162  A    between atoms: _393  and  _396
REMARK  163  A    between atoms: _396  and  _397
REMARK  164  A    between atoms: _400  and  _402
REMARK  165  A    between atoms: _402  and  _403
REMARK  166  A    between atoms: _402  and  _405
REMARK  167  A    between atoms: _405  and  _406
REMARK  168  A    between atoms: _409  and  _411
REMARK  169  A    between atoms: _411  and  _412
REMARK  170  A    between atoms: _411  and  _414
REMARK  171  A    between atoms: _417  and  _419
REMARK  172  A    between atoms: _419  and  _420
REMARK  173  A    between atoms: _419  and  _422
REMARK  174  A    between atoms: _422  and  _423
REMARK  175  A    between atoms: _426  and  _428
REMARK  176  A    between atoms: _428  and  _429
REMARK  177  A    between atoms: _428  and  _431
REMARK  178  A    between atoms: _431  and  _432
REMARK  179  A    between atoms: _432  and  _433
REMARK  180  A    between atoms: _433  and  _434
REMARK  181  A    between atoms: _434  and  _435
REMARK  182  A    between atoms: _439  and  _441
REMARK  183  A    between atoms: _441  and  _442
REMARK  184  A    between atoms: _441  and  _444
REMARK  185  A    between atoms: _444  and  _445
REMARK  186  A    between atoms: _445  and  _446
REMARK  187  A    between atoms: _448  and  _450
REMARK  188  A    between atoms: _450  and  _451
REMARK  189  A    between atoms: _450  and  _453
REMARK  190  A    between atoms: _453  and  _454
REMARK  191  A    between atoms: _457  and  _459
REMARK  192  A    between atoms: _459  and  _460
REMARK  193  A    between atoms: _462  and  _464
REMARK  194  A    between atoms: _464  and  _465
REMARK  195  A    between atoms: _467  and  _469
REMARK  196  A    between atoms: _469  and  _470
REMARK  197  A    between atoms: _469  and  _472
REMARK  198  A    between atoms: _472  and  _473
REMARK  199  A    between atoms: _476  and  _478
REMARK  200  A    between atoms: _478  and  _479
REMARK  201  A    between atoms: _481  and  _483
REMARK  202  A    between atoms: _483  and  _484
REMARK  203  A    between atoms: _486  and  _488
REMARK  204  A    between atoms: _488  and  _489
REMARK  205  A    between atoms: _488  and  _491
REMARK  206  A    between atoms: _491  and  _492
REMARK  207  A    between atoms: _498  and  _500
REMARK  208  A    between atoms: _500  and  _501
REMARK  209  A    between atoms: _500  and  _503
REMARK  210  A    between atoms: _503  and  _504
REMARK  211  A    between atoms: _507  and  _509
REMARK  212  A    between atoms: _509  and  _510
REMARK  213  A    between atoms: _509  and  _512
REMARK  214  A    between atoms: _515  and  _517
REMARK  215  A    between atoms: _517  and  _518
REMARK  216  A    between atoms: _517  and  _520
REMARK  217  A    between atoms: _520  and  _521
REMARK  218  A    between atoms: _525  and  _526
REMARK  219  A    between atoms: _531  and  _533
REMARK  220  A    between atoms: _533  and  _534
REMARK  221  A    between atoms: _533  and  _536
REMARK  222  A    between atoms: _536  and  _537
REMARK  223  A    between atoms: _541  and  _542
REMARK  224  A    between atoms: _547  and  _549
REMARK  225  A    between atoms: _549  and  _550
REMARK  226  A    between atoms: _549  and  _552
REMARK  227  A    between atoms: _555  and  _557
REMARK  228  A    between atoms: _557  and  _558
REMARK  229  A    between atoms: _557  and  _560
REMARK  230  A    between atoms: _560  and  _561
REMARK  231  A    between atoms: _566  and  _568
REMARK  232  A    between atoms: _568  and  _569
REMARK  233  A    between atoms: _568  and  _571
REMARK  234  A    between atoms: _571  and  _572
REMARK  235  A    between atoms: _575  and  _577
REMARK  236  A    between atoms: _577  and  _578
REMARK  237  A    between atoms: _577  and  _580
REMARK  238  A    between atoms: _580  and  _581
REMARK  239  A    between atoms: _584  and  _586
REMARK  240  A    between atoms: _586  and  _587
REMARK  241  A    between atoms: _589  and  _591
REMARK  242  A    between atoms: _591  and  _592
REMARK  243  A    between atoms: _591  and  _594
REMARK  244  A    between atoms: _594  and  _595
REMARK  245  A    between atoms: _595  and  _596
REMARK  246  A    between atoms: _596  and  _597
REMARK  247  A    between atoms: _606  and  _608
REMARK  248  A    between atoms: _608  and  _609
REMARK  249  A    between atoms: _608  and  _611
REMARK  250  A    between atoms: _611  and  _612
REMARK                            x       y       z     vdW  Elec       q    Type
REMARK                         _______ _______ _______ _____ _____    ______ ____
ROOT
ATOM      1  CA  LEU A   1       8.222  30.503  16.681  0.00  0.00    +0.133 C 
ENDROOT
BRANCH   1   2
ATOM      2  N   LEU A   1       8.997  31.669  16.296  0.00  0.00    -0.239 NA
ATOM      3  H   LEU A   1       9.670  31.594  15.507  0.00  0.00    +0.142 HD
ENDBRANCH   1   2
BRANCH   1   4
ATOM      4  C   LEU A   1       9.114  29.617  17.539  0.00  0.00    +0.224 C 
ATOM      5  O   LEU A   1      10.322  29.525  17.314  0.00  0.00    -0.287 OA
ENDBRANCH   1   4
BRANCH   1   6
ATOM      6  CB  LEU A   1       7.766  29.735  15.437  0.00  0.00    +0.025 C 
BRANCH   6   7
ATOM      7  CG  LEU A   1       7.099  30.591  14.357  0.00  0.00    +0.002 C 
ATOM      8  CD2 LEU A   1       5.811  31.207  14.890  0.00  0.00    +0.000 C 
ATOM      9  CD1 LEU A   1       6.827  29.721  13.139  0.00  0.00    +0.000 C 
ENDBRANCH   6   7
ENDBRANCH   1   6
TORSDOF 4
REMARK  Name = ../refined-set-2016/1w5x/1w5x_pocket.pdb
REMARK  250 active torsions:
REMARK  status: ('A' for Active; 'I' for Inactive)
REMARK    1  A    between atoms: _1  and  _3
REMARK    2  A    between atoms: _3  and  _4
REMARK    3  A    between atoms: _3  and  _6
REMARK    4  A    between atoms: _6  and  _7
REMARK    5  A    between atoms: _7  and  _8
REMARK    6  A    between atoms: _8  and  _9
REMARK    7  A    between atoms: _18  and  _20
REMARK    8  A    between atoms: _20  and  _21
REMARK    9  A    between atoms: _20  and  _23
REMARK   10  A    between atoms: _23  and  _24
REMARK   11  A    between atoms: _27  and  _29
REMARK   12  A    between atoms: _29  and  _30
REMARK   13  A    between atoms: _29  and  _32
REMARK   14  A    between atoms: _32  and  _33
REMARK   15  A    between atoms: _36  and  _38
REMARK   16  A    between atoms: _38  and  _39
REMARK   17  A    between atoms: _38  and  _41
REMARK   18  A    between atoms: _41  and  _42
REMARK   19  A    between atoms: _45  and  _47
REMARK   20  A    between atoms: _47  and  _48
REMARK   21  A    between atoms: _47  and  _50
REMARK   22  A    between atoms: _50  and  _51
REMARK   23  A    between atoms: _54  and  _56
REMARK   24  A    between atoms: _56  and  _57
REMARK   25  A    between atoms: _56  and  _59
REMARK   26  A    between atoms: _59  and  _60
REMARK   27  A    between atoms: _63  and  _65
REMARK   28  A    between atoms: _65  and  _66
REMARK   29  A    between atoms: _68  and  _70
REMARK   30  A    between atoms: _70  and  _71
REMARK   31  A    between atoms: _74  and  _76
REMARK   32  A    between atoms: _76  and  _77
REMARK   33  A    between atoms: _76  and  _79
REMARK   34  A    between atoms: _79  and  _80
REMARK   35  A    between atoms: _83  and  _85
REMARK   36  A    between atoms: _85  and  _86
REMARK   37  A    between atoms: _85  and  _88
REMARK   38  A    between atoms: _88  and  _89
REMARK   39  A    between atoms: _92  and  _94
REMARK   40  A    between atoms: _94  and  _95
REMARK   41  A    between atoms: _94  and  _97
REMARK   42  A    between atoms: _97  and  _98
REMARK   43  A    between atoms: _101  and  _103
REMARK   44  A    between atoms: _103  and  _104
REMARK   45  A    between atoms: _103  and  _106
REMARK   46  A    between atoms: _109  and  _111
REMARK   47  A    between atoms: _111  and  _112
REMARK   48  A    between atoms: _111  and  _114
REMARK   49  A    between atoms: _114  and  _115
REMARK   50  A    between atoms: _118  and  _120
REMARK   51  A    between atoms: _120  and  _121
REMARK   52  A    between atoms: _120  and  _123
REMARK   53  A    between atoms: _123  and  _124
REMARK   54  A    between atoms: _124  and  _125
REMARK   55  A    between atoms: _125  and  _126
REMARK   56  A    between atoms: _126  and  _127
REMARK   57  A    between atoms: _131  and  _133
REMARK   58  A    between atoms: _133  and  _134
REMARK   59  A    between atoms: _133  and  _136
REMARK   60  A    between atoms: _136  and  _137
REMARK   61  A    between atoms: _137  and  _138
REMARK   62  A    between atoms: _140  and  _142
REMARK   63  A    between atoms: _142  and  _143
REMARK   64  A    between atoms: _142  and  _145
REMARK   65  A    between atoms: _145  and  _146
REMARK   66  A    between atoms: _149  and  _151
REMARK   67  A    between atoms: _151  and  _152
REMARK   68  A    between atoms: _154  and  _156
REMARK   69  A    between atoms: _156  and  _157
REMARK   70  A    between atoms: _159  and  _161
REMARK   71  A    between atoms: _161  and  _162
REMARK   72  A    between atoms: _161  and  _164
REMARK   73  A    between atoms: _164  and  _165
REMARK   74  A    between atoms: _168  and  _170
REMARK   75  A    between atoms: _170  and  _171
REMARK   76  A    between atoms: _173  and  _175
REMARK   77  A    between atoms: _175  and  _176
REMARK   78  A    between atoms: _178  and  _180
REMARK   79  A    between atoms: _180  and  _181
REMARK   80  A    between atoms: _180  and  _183
REMARK   81  A    between atoms: _183  and  _184
REMARK   82  A    between atoms: _190  and  _192
REMARK   83  A    between atoms: _192  and  _193
REMARK   84  A    between atoms: _192  and  _195
REMARK   85  A    between atoms: _195  and  _196
REMARK   86  A    between atoms: _199  and  _201
REMARK   87  A    between atoms: _201  and  _202
REMARK   88  A    between atoms: _201  and  _204
REMARK   89  A    between atoms: _207  and  _209
REMARK   90  A    between atoms: _209  and  _210
REMARK   91  A    between atoms: _209  and  _212
REMARK   92  A    between atoms: _212  and  _213
REMARK   93  A    between atoms: _217  and  _218
REMARK   94  A    between atoms: _223  and  _225
REMARK   95  A    between atoms: _225  and  _226
REMARK   96  A    between atoms: _225  and  _228
REMARK   97  A    between atoms: _228  and  _229
REMARK   98  A    between atoms: _233  and  _234
REMARK   99  A    between atoms: _239  and  _241
REMARK  100  A    between atoms: _241  and  _242
REMARK  101  A    between atoms: _241  and  _244
REMARK  102  A    between atoms: _247  and  _249
REMARK  103  A    between atoms: _249  and  _250
REMARK  104  A    between atoms: _249  and  _252
REMARK  105  A    between atoms: _252  and  _253
REMARK  106  A    between atoms: _258  and  _260
REMARK  107  A    between atoms: _260  and  _261
REMARK  108  A    between atoms: _260  and  _263
REMARK  109  A    between atoms: _263  and  _264
REMARK  110  A    between atoms: _267  and  _269
REMARK  111  A    between atoms: _269  and  _270
REMARK  112  A    between atoms: _269  and  _272
REMARK  113  A    between atoms: _272  and  _273
REMARK  114  A    between atoms: _276  and  _278
REMARK  115  A    between atoms: _278  and  _279
REMARK  116  A    between atoms: _281  and  _283
REMARK  117  A    between atoms: _283  and  _284
REMARK  118  A    between atoms: _283  and  _286
REMARK  119  A    between atoms: _286  and  _287
REMARK  120  A    between atoms: _287  and  _288
REMARK  121  A    between atoms: _288  and  _289
REMARK  122  A    between atoms: _298  and  _300
REMARK  123  A    between atoms: _300  and  _301
REMARK  124  A    between atoms: _300  and  _303
REMARK  125  A    between atoms: _303  and  _304
REMARK  126  A    between atoms: _309  and  _311
REMARK  127  A    between atoms: _311  and  _312
REMARK  128  A    between atoms: _311  and  _314
REMARK  129  A    between atoms: _314  and  _315
REMARK  130  A    between atoms: _315  and  _316
REMARK  131  A    between atoms: _316  and  _317
REMARK  132  A    between atoms: _326  and  _328
REMARK  133  A    between atoms: _328  and  _329
REMARK  134  A    between atoms: _328  and  _331
REMARK  135  A    between atoms: _331  and  _332
REMARK  136  A    between atoms: _335  and  _337
REMARK  137  A    between atoms: _337  and  _338
REMARK  138  A    between atoms: _337  and  _340
REMARK  139  A    between atoms: _340  and  _341
REMARK  140  A    between atoms: _344  and  _346
REMARK  141  A    between atoms: _346  and  _347
REMARK  142  A    between atoms: _346  and  _349
REMARK  143  A    between atoms: _349  and  _350
REMARK  144  A    between atoms: _353  and  _355
REMARK  145  A    between atoms: _355  and  _356
REMARK  146  A    between atoms: _355  and  _358
REMARK  147  A    between atoms: _358  and  _359
REMARK  148  A    between atoms: _362  and  _364
REMARK  149  A    between atoms: _364  and  _365
REMARK  150  A    between atoms: _364  and  _367
REMARK  151  A    between atoms: _367  and  _368
REMARK  152  A    between atoms: _371  and  _373
REMARK  153  A    between atoms: _373  and  _374
REMARK  154  A    between atoms: _376  and  _378
REMARK  155  A    between atoms: _378  and  _379
REMARK  156  A    between atoms: _382  and  _384
REMARK  157  A    between atoms: _384  and  _385
REMARK  158  A    between atoms: _384  and  _387
REMARK  159  A    between atoms: _387  and  _388
REMARK  160  A    between atoms: _391  and  _393
REMARK  161  A    between atoms: _393  and  _394
REMARK  162  A    between atoms: _393  and  _396
REMARK  163  A    between atoms: _396  and  _397
REMARK  164  A    between atoms: _400  and  _402
REMARK  165  A    between atoms: _402  and  _403
REMARK  166  A    between atoms: _402  and  _405
REMARK  167  A    between atoms: _405  and  _406
REMARK  168  A    between atoms: _409  and  _411
REMARK  169  A    between atoms: _411  and  _412
REMARK  170  A    between atoms: _411  and  _414
REMARK  171  A    between atoms: _417  and  _419
REMARK  172  A    between atoms: _419  and  _420
REMARK  173  A    between atoms: _419  and  _422
REMARK  174  A    between atoms: _422  and  _423
REMARK  175  A    between atoms: _426  and  _428
REMARK  176  A    between atoms: _428  and  _429
REMARK  177  A    between atoms: _428  and  _431
REMARK  178  A    between atoms: _431  and  _432
REMARK  179  A    between atoms: _432  and  _433
REMARK  180  A    between atoms: _433  and  _434
REMARK  181  A    between atoms: _434  and  _435
REMARK  182  A    between atoms: _439  and  _441
REMARK  183  A    between atoms: _441  and  _442
REMARK  184  A    between atoms: _441  and  _444
REMARK  185  A    between atoms: _444  and  _445
REMARK  186  A    between atoms: _445  and  _446
REMARK  187  A    between atoms: _448  and  _450
REMARK  188  A    between atoms: _450  and  _451
REMARK  189  A    between atoms: _450  and  _453
REMARK  190  A    between atoms: _453  and  _454
REMARK  191  A    between atoms: _457  and  _459
REMARK  192  A    between atoms: _459  and  _460
REMARK  193  A    between atoms: _462  and  _464
REMARK  194  A    between atoms: _464  and  _465
REMARK  195  A    between atoms: _467  and  _469
REMARK  196  A    between atoms: _469  and  _470
REMARK  197  A    between atoms: _469  and  _472
REMARK  198  A    between atoms: _472  and  _473
REMARK  199  A    between atoms: _476  and  _478
REMARK  200  A    between atoms: _478  and  _479
REMARK  201  A    between atoms: _481  and  _483
REMARK  202  A    between atoms: _483  and  _484
REMARK  203  A    between atoms: _486  and  _488
REMARK  204  A    between atoms: _488  and  _489
REMARK  205  A    between atoms: _488  and  _491
REMARK  206  A    between atoms: _491  and  _492
REMARK  207  A    between atoms: _498  and  _500
REMARK  208  A    between atoms: _500  and  _501
REMARK  209  A    between atoms: _500  and  _503
REMARK  210  A    between atoms: _503  and  _504
REMARK  211  A    between atoms: _507  and  _509
REMARK  212  A    between atoms: _509  and  _510
REMARK  213  A    between atoms: _509  and  _512
REMARK  214  A    between atoms: _515  and  _517
REMARK  215  A    between atoms: _517  and  _518
REMARK  216  A    between atoms: _517  and  _520
REMARK  217  A    between atoms: _520  and  _521
REMARK  218  A    between atoms: _525  and  _526
REMARK  219  A    between atoms: _531  and  _533
REMARK  220  A    between atoms: _533  and  _534
REMARK  221  A    between atoms: _533  and  _536
REMARK  222  A    between atoms: _536  and  _537
REMARK  223  A    between atoms: _541  and  _542
REMARK  224  A    between atoms: _547  and  _549
REMARK  225  A    between atoms: _549  and  _550
REMARK  226  A    between atoms: _549  and  _552
REMARK  227  A    between atoms: _555  and  _557
REMARK  228  A    between atoms: _557  and  _558
REMARK  229  A    between atoms: _557  and  _560
REMARK  230  A    between atoms: _560  and  _561
REMARK  231  A    between atoms: _566  and  _568
REMARK  232  A    between atoms: _568  and  _569
REMARK  233  A    between atoms: _568  and  _571
REMARK  234  A    between atoms: _571  and  _572
REMARK  235  A    between atoms: _575  and  _577
REMARK  236  A    between atoms: _577  and  _578
REMARK  237  A    between atoms: _577  and  _580
REMARK  238  A    between atoms: _580  and  _581
REMARK  239  A    between atoms: _584  and  _586
REMARK  240  A    between atoms: _586  and  _587
REMARK  241  A    between atoms: _589  and  _591
REMARK  242  A    between atoms: _591  and  _592
REMARK  243  A    between atoms: _591  and  _594
REMARK  244  A    between atoms: _594  and  _595
REMARK  245  A    between atoms: _595  and  _596
REMARK  246  A    between atoms: _596  and  _597
REMARK  247  A    between atoms: _606  and  _608
REMARK  248  A    between atoms: _608  and  _609
REMARK  249  A    between atoms: _608  and  _611
REMARK  250  A    between atoms: _611  and  _612
REMARK                            x       y       z     vdW  Elec       q    Type
REMARK                         _______ _______ _______ _____ _____    ______ ____
ROOT
ATOM      1  CA  ILE A   6      16.062  28.146  11.925  0.00  0.00    +0.149 C 
ENDROOT
BRANCH   1   2
ATOM      2  C   ILE A   6      15.783  29.638  11.858  0.00  0.00    +0.241 C 
ATOM      3  O   ILE A   6      14.847  30.130  12.484  0.00  0.00    -0.273 OA
ATOM      4  N   ILE A   7      16.605  30.355  11.101  0.00  0.00    -0.297 N 
ATOM      5  H   ILE A   7      17.418  29.891  10.647  0.00  0.00    +0.150 HD
BRANCH   4   6
ATOM      6  CA  ILE A   7      16.389  31.778  10.895  0.00  0.00    +0.149 C 
BRANCH   6   7
ATOM      7  C   ILE A   7      15.740  31.829   9.517  0.00  0.00    +0.241 C 
ATOM      8  N   GLY A   8      14.453  32.157   9.488  0.00  0.00    -0.295 N 
ATOM      9  H   GLY A   8      13.961  32.383  10.376  0.00  0.00    +0.150 HD
ATOM     10  O   ILE A   7      16.391  31.555   8.508  0.00  0.00    -0.273 OA
BRANCH   8  11
ATOM     11  CA  GLY A   8      13.724  32.205   8.235  0.00  0.00    +0.176 C 
BRANCH  11  12
ATOM     12  C   GLY A   8      13.702  33.555   7.550  0.00  0.00    +0.243 C 
ATOM     13  O   GLY A   8      14.282  34.527   8.030  0.00  0.00    -0.273 OA
ATOM     14  N   ARG A   9      13.004  33.613   6.424  0.00  0.00    -0.297 N 
ATOM     15  H   ARG A   9      12.506  32.762   6.094  0.00  0.00    +0.150 HD
BRANCH  14  16
ATOM     16  CA  ARG A   9      12.915  34.834   5.638  0.00  0.00    +0.149 C 
BRANCH  16  17
ATOM     17  C   ARG A   9      12.411  36.065   6.378  0.00  0.00    +0.241 C 
ATOM     18  N   ASN A  10      11.483  35.882   7.312  0.00  0.00    -0.298 N 
ATOM     19  H   ASN A  10      11.149  34.921   7.527  0.00  0.00    +0.150 HD
ATOM     20  O   ARG A   9      12.869  37.177   6.103  0.00  0.00    -0.273 OA
BRANCH  18  21
ATOM     21  CA  ASN A  10      10.929  37.023   8.039  0.00  0.00    +0.146 C 
BRANCH  21  22
ATOM     22  C   ASN A  10      12.010  37.832   8.752  0.00  0.00    +0.227 C 
ATOM     23  O   ASN A  10      11.846  39.032   8.975  0.00  0.00    -0.286 OA
ENDBRANCH  21  22
BRANCH  21  24
ATOM     24  CB  ASN A  10       9.862  36.565   9.040  0.00  0.00    +0.112 C 
BRANCH  24  25
ATOM     25  CG  ASN A  10      10.457  35.902  10.268  0.00  0.00    +0.222 C 
ATOM     26  ND2 ASN A  10      10.144  36.447  11.441  0.00  0.00    -0.329 N 
ATOM     27 HD21 ASN A  10      10.518  36.037  12.321  0.00  0.00    +0.145 HD
ATOM     28 HD22 ASN A  10       9.526  37.282  11.478  0.00  0.00    +0.145 HD
ATOM     29  OD1 ASN A  10      11.185  34.912  10.165  0.00  0.00    -0.275 OA
ENDBRANCH  24  25
ENDBRANCH  21  24
ENDBRANCH  18  21
ENDBRANCH  16  17
BRANCH  16  30
ATOM     30  CB  ARG A   9      12.044  34.592   4.397  0.00  0.00    +0.033 C 
BRANCH  30  31
ATOM     31  CG  ARG A   9      12.671  33.621   3.406  0.00  0.00    +0.045 C 
BRANCH  31  32
ATOM     32  CD  ARG A   9      11.923  33.587   2.070  0.00  0.00    +0.174 C 
BRANCH  32  33
ATOM     33  NE  ARG A   9      10.528  33.187   2.226  0.00  0.00    -0.265 N 
ATOM     34  CZ  ARG A   9       9.496  34.027   2.295  0.00  0.00    +0.342 C 
ATOM     35  NH2 ARG A   9       8.268  33.548   2.452  0.00  0.00    -0.292 N 
ATOM     36 HH21 ARG A   9       8.115  32.522   2.521  0.00  0.00    +0.255 HD
ATOM     37 HH22 ARG A   9       7.459  34.199   2.506  0.00  0.00    +0.255 HD
ATOM     38  NH1 ARG A   9       9.682  35.340   2.216  0.00  0.00    -0.292 N 
ATOM     39 HH11 ARG A   9       8.868  35.985   2.271  0.00  0.00    +0.255 HD
ATOM     40 HH12 ARG A   9      10.642  35.723   2.099  0.00  0.00    +0.255 HD
ATOM     41  HE  ARG A   9      10.324  32.169   2.288  0.00  0.00    +0.259 HD
ENDBRANCH  32  33
ENDBRANCH  31  32
ENDBRANCH  30  31
ENDBRANCH  16  30
ENDBRANCH  14  16
ENDBRANCH  11  12
ENDBRANCH   8  11
ENDBRANCH   6   7
BRANCH   6  42
ATOM     42  CB  ILE A   7      17.704  32.576  10.864  0.00  0.00    +0.027 C 
ATOM     43  CG2 ILE A   7      17.413  34.025  10.498  0.00  0.00    +0.002 C 
BRANCH  42  44
ATOM     44  CG1 ILE A   7      18.401  32.496  12.226  0.00  0.00    +0.002 C 
ATOM     45  CD1 ILE A   7      17.532  32.927  13.396  0.00  0.00    +0.000 C 
ENDBRANCH  42  44
ENDBRANCH   6  42
ENDBRANCH   4   6
ENDBRANCH   1   2
BRANCH   1  47
ATOM     46  C   ASN A   5      17.294  27.024  13.682  0.00  0.00    +0.241 C 
ATOM     47  N   ILE A   6      16.191  27.634  13.275  0.00  0.00    -0.297 N 
ATOM     48  H   ILE A   6      15.399  27.748  13.939  0.00  0.00    +0.150 HD
ATOM     49  O   ASN A   5      18.294  26.878  12.973  0.00  0.00    -0.273 OA
BRANCH  46  50
ATOM     50  CA  ASN A   5      17.259  26.492  15.104  0.00  0.00    +0.158 C 
BRANCH  50  52
ATOM     51  C   VAL A   4      16.955  24.175  14.506  0.00  0.00    +0.241 C 
ATOM     52  N   ASN A   5      17.722  25.114  15.052  0.00  0.00    -0.297 N 
ATOM     53  H   ASN A   5      18.653  24.863  15.442  0.00  0.00    +0.150 HD
ATOM     54  O   VAL A   4      15.832  24.413  14.062  0.00  0.00    -0.273 OA
BRANCH  51  55
ATOM     55  CA  VAL A   4      17.514  22.756  14.473  0.00  0.00    +0.149 C 
BRANCH  55  58
ATOM     56  C   PRO A   3      16.549  20.613  15.097  0.00  0.00    +0.241 C 
ATOM     57  O   PRO A   3      17.596  20.254  15.629  0.00  0.00    -0.273 OA
ATOM     58  N   VAL A   4      16.410  21.802  14.521  0.00  0.00    -0.297 N 
ATOM     59  H   VAL A   4      15.496  22.058  14.096  0.00  0.00    +0.150 HD
BRANCH  56  63
ATOM     60  C   THR A   2      13.610  21.238  15.880  0.00  0.00    +0.246 C 
ATOM     61  O   THR A   2      14.245  21.447  16.916  0.00  0.00    -0.273 OA
ATOM     62  N   PRO A   3      14.053  20.402  14.936  0.00  0.00    -0.272 N 
ATOM     63  CA  PRO A   3      15.327  19.694  15.084  0.00  0.00    +0.152 C 
ATOM     64  CB  PRO A   3      15.322  18.730  13.899  0.00  0.00    +0.031 C 
ATOM     65  CG  PRO A   3      14.523  19.468  12.871  0.00  0.00    +0.024 C 
ATOM     66  CD  PRO A   3      13.386  20.039  13.673  0.00  0.00    +0.094 C 
BRANCH  60  67
ATOM     67  CA  THR A   2      12.270  21.922  15.629  0.00  0.00    +0.176 C 
BRANCH  67  69
ATOM     68  C   PRO A   1      10.863  20.808  17.245  0.00  0.00    +0.239 C 
ATOM     69  N   THR A   2      11.536  21.897  16.887  0.00  0.00    -0.295 N 
ATOM     70  H   THR A   2      11.539  22.733  17.506  0.00  0.00    +0.150 HD
ATOM     71  O   PRO A   1      10.808  19.802  16.535  0.00  0.00    -0.274 OA
BRANCH  68  76
ATOM     72  N   PRO A   1       9.271  22.003  18.795  0.00  0.00    -0.210 NA
ATOM     73  CD  PRO A   1       7.851  21.600  18.774  0.00  0.00    +0.089 C 
ATOM     74  CG  PRO A   1       7.914  20.196  18.190  0.00  0.00    +0.021 C 
ATOM     75  CB  PRO A   1       9.193  19.669  18.778  0.00  0.00    +0.028 C 
ATOM     76  CA  PRO A   1      10.144  20.847  18.591  0.00  0.00    +0.149 C 
ENDBRANCH  68  76
ENDBRANCH  67  69
BRANCH  67  77
ATOM     77  CB  THR A   2      12.515  23.364  15.126  0.00  0.00    +0.137 C 
ATOM     78  CG2 THR A   2      13.275  24.174  16.164  0.00  0.00    +0.034 C 
BRANCH  77  79
ATOM     79  OG1 THR A   2      13.269  23.323  13.906  0.00  0.00    -0.382 OA
ATOM     80  HG1 THR A   2      14.138  22.878  14.071  0.00  0.00    +0.210 HD
ENDBRANCH  77  79
ENDBRANCH  67  77
ENDBRANCH  60  67
ENDBRANCH  56  63
ENDBRANCH  55  58
BRANCH  55  81
ATOM     81  CB  VAL A   4      18.346  22.568  13.181  0.00  0.00    +0.027 C 
ATOM     82  CG2 VAL A   4      19.538  23.511  13.173  0.00  0.00    +0.002 C 
ATOM     83  CG1 VAL A   4      17.472  22.815  11.969  0.00  0.00    +0.002 C 
ENDBRANCH  55  81
ENDBRANCH  51  55
ENDBRANCH  50  52
BRANCH  50  84
ATOM     84  CB  ASN A   5      18.146  27.332  16.020  0.00  0.00    +0.114 C 
BRANCH  84  85
ATOM     85  CG  ASN A   5      17.998  26.937  17.477  0.00  0.00    +0.222 C 
ATOM     86  ND2 ASN A   5      19.120  26.800  18.175  0.00  0.00    -0.329 N 
ATOM     87 HD21 ASN A   5      19.078  26.534  19.179  0.00  0.00    +0.145 HD
ATOM     88 HD22 ASN A   5      20.040  26.959  17.717  0.00  0.00    +0.145 HD
ATOM     89  OD1 ASN A   5      16.882  26.761  17.968  0.00  0.00    -0.275 OA
ENDBRANCH  84  85
ENDBRANCH  50  84
ENDBRANCH  46  50
ENDBRANCH   1  47
BRANCH   1  90
ATOM     90  CB  ILE A   6      14.908  27.423  11.197  0.00  0.00    +0.027 C 
ATOM     91  CG2 ILE A   6      14.690  28.032   9.811  0.00  0.00    +0.002 C 
BRANCH  90  92
ATOM     92  CG1 ILE A   6      15.203  25.926  11.113  0.00  0.00    +0.002 C 
ATOM     93  CD1 ILE A   6      14.005  25.111  10.666  0.00  0.00    +0.000 C 
ENDBRANCH  90  92
ENDBRANCH   1  90
TORSDOF 33
REMARK  Name = ../refined-set-2016/1w5x/1w5x_pocket.pdb
REMARK  250 active torsions:
REMARK  status: ('A' for Active; 'I' for Inactive)
REMARK    1  A    between atoms: _1  and  _3
REMARK    2  A    between atoms: _3  and  _4
REMARK    3  A    between atoms: _3  and  _6
REMARK    4  A    between atoms: _6  and  _7
REMARK    5  A    between atoms: _7  and  _8
REMARK    6  A    between atoms: _8  and  _9
REMARK    7  A    between atoms: _18  and  _20
REMARK    8  A    between atoms: _20  and  _21
REMARK    9  A    between atoms: _20  and  _23
REMARK   10  A    between atoms: _23  and  _24
REMARK   11  A    between atoms: _27  and  _29
REMARK   12  A    between atoms: _29  and  _30
REMARK   13  A    between atoms: _29  and  _32
REMARK   14  A    between atoms: _32  and  _33
REMARK   15  A    between atoms: _36  and  _38
REMARK   16  A    between atoms: _38  and  _39
REMARK   17  A    between atoms: _38  and  _41
REMARK   18  A    between atoms: _41  and  _42
REMARK   19  A    between atoms: _45  and  _47
REMARK   20  A    between atoms: _47  and  _48
REMARK   21  A    between atoms: _47  and  _50
REMARK   22  A    between atoms: _50  and  _51
REMARK   23  A    between atoms: _54  and  _56
REMARK   24  A    between atoms: _56  and  _57
REMARK   25  A    between atoms: _56  and  _59
REMARK   26  A    between atoms: _59  and  _60
REMARK   27  A    between atoms: _63  and  _65
REMARK   28  A    between atoms: _65  and  _66
REMARK   29  A    between atoms: _68  and  _70
REMARK   30  A    between atoms: _70  and  _71
REMARK   31  A    between atoms: _74  and  _76
REMARK   32  A    between atoms: _76  and  _77
REMARK   33  A    between atoms: _76  and  _79
REMARK   34  A    between atoms: _79  and  _80
REMARK   35  A    between atoms: _83  and  _85
REMARK   36  A    between atoms: _85  and  _86
REMARK   37  A    between atoms: _85  and  _88
REMARK   38  A    between atoms: _88  and  _89
REMARK   39  A    between atoms: _92  and  _94
REMARK   40  A    between atoms: _94  and  _95
REMARK   41  A    between atoms: _94  and  _97
REMARK   42  A    between atoms: _97  and  _98
REMARK   43  A    between atoms: _101  and  _103
REMARK   44  A    between atoms: _103  and  _104
REMARK   45  A    between atoms: _103  and  _106
REMARK   46  A    between atoms: _109  and  _111
REMARK   47  A    between atoms: _111  and  _112
REMARK   48  A    between atoms: _111  and  _114
REMARK   49  A    between atoms: _114  and  _115
REMARK   50  A    between atoms: _118  and  _120
REMARK   51  A    between atoms: _120  and  _121
REMARK   52  A    between atoms: _120  and  _123
REMARK   53  A    between atoms: _123  and  _124
REMARK   54  A    between atoms: _124  and  _125
REMARK   55  A    between atoms: _125  and  _126
REMARK   56  A    between atoms: _126  and  _127
REMARK   57  A    between atoms: _131  and  _133
REMARK   58  A    between atoms: _133  and  _134
REMARK   59  A    between atoms: _133  and  _136
REMARK   60  A    between atoms: _136  and  _137
REMARK   61  A    between atoms: _137  and  _138
REMARK   62  A    between atoms: _140  and  _142
REMARK   63  A    between atoms: _142  and  _143
REMARK   64  A    between atoms: _142  and  _145
REMARK   65  A    between atoms: _145  and  _146
REMARK   66  A    between atoms: _149  and  _151
REMARK   67  A    between atoms: _151  and  _152
REMARK   68  A    between atoms: _154  and  _156
REMARK   69  A    between atoms: _156  and  _157
REMARK   70  A    between atoms: _159  and  _161
REMARK   71  A    between atoms: _161  and  _162
REMARK   72  A    between atoms: _161  and  _164
REMARK   73  A    between atoms: _164  and  _165
REMARK   74  A    between atoms: _168  and  _170
REMARK   75  A    between atoms: _170  and  _171
REMARK   76  A    between atoms: _173  and  _175
REMARK   77  A    between atoms: _175  and  _176
REMARK   78  A    between atoms: _178  and  _180
REMARK   79  A    between atoms: _180  and  _181
REMARK   80  A    between atoms: _180  and  _183
REMARK   81  A    between atoms: _183  and  _184
REMARK   82  A    between atoms: _190  and  _192
REMARK   83  A    between atoms: _192  and  _193
REMARK   84  A    between atoms: _192  and  _195
REMARK   85  A    between atoms: _195  and  _196
REMARK   86  A    between atoms: _199  and  _201
REMARK   87  A    between atoms: _201  and  _202
REMARK   88  A    between atoms: _201  and  _204
REMARK   89  A    between atoms: _207  and  _209
REMARK   90  A    between atoms: _209  and  _210
REMARK   91  A    between atoms: _209  and  _212
REMARK   92  A    between atoms: _212  and  _213
REMARK   93  A    between atoms: _217  and  _218
REMARK   94  A    between atoms: _223  and  _225
REMARK   95  A    between atoms: _225  and  _226
REMARK   96  A    between atoms: _225  and  _228
REMARK   97  A    between atoms: _228  and  _229
REMARK   98  A    between atoms: _233  and  _234
REMARK   99  A    between atoms: _239  and  _241
REMARK  100  A    between atoms: _241  and  _242
REMARK  101  A    between atoms: _241  and  _244
REMARK  102  A    between atoms: _247  and  _249
REMARK  103  A    between atoms: _249  and  _250
REMARK  104  A    between atoms: _249  and  _252
REMARK  105  A    between atoms: _252  and  _253
REMARK  106  A    between atoms: _258  and  _260
REMARK  107  A    between atoms: _260  and  _261
REMARK  108  A    between atoms: _260  and  _263
REMARK  109  A    between atoms: _263  and  _264
REMARK  110  A    between atoms: _267  and  _269
REMARK  111  A    between atoms: _269  and  _270
REMARK  112  A    between atoms: _269  and  _272
REMARK  113  A    between atoms: _272  and  _273
REMARK  114  A    between atoms: _276  and  _278
REMARK  115  A    between atoms: _278  and  _279
REMARK  116  A    between atoms: _281  and  _283
REMARK  117  A    between atoms: _283  and  _284
REMARK  118  A    between atoms: _283  and  _286
REMARK  119  A    between atoms: _286  and  _287
REMARK  120  A    between atoms: _287  and  _288
REMARK  121  A    between atoms: _288  and  _289
REMARK  122  A    between atoms: _298  and  _300
REMARK  123  A    between atoms: _300  and  _301
REMARK  124  A    between atoms: _300  and  _303
REMARK  125  A    between atoms: _303  and  _304
REMARK  126  A    between atoms: _309  and  _311
REMARK  127  A    between atoms: _311  and  _312
REMARK  128  A    between atoms: _311  and  _314
REMARK  129  A    between atoms: _314  and  _315
REMARK  130  A    between atoms: _315  and  _316
REMARK  131  A    between atoms: _316  and  _317
REMARK  132  A    between atoms: _326  and  _328
REMARK  133  A    between atoms: _328  and  _329
REMARK  134  A    between atoms: _328  and  _331
REMARK  135  A    between atoms: _331  and  _332
REMARK  136  A    between atoms: _335  and  _337
REMARK  137  A    between atoms: _337  and  _338
REMARK  138  A    between atoms: _337  and  _340
REMARK  139  A    between atoms: _340  and  _341
REMARK  140  A    between atoms: _344  and  _346
REMARK  141  A    between atoms: _346  and  _347
REMARK  142  A    between atoms: _346  and  _349
REMARK  143  A    between atoms: _349  and  _350
REMARK  144  A    between atoms: _353  and  _355
REMARK  145  A    between atoms: _355  and  _356
REMARK  146  A    between atoms: _355  and  _358
REMARK  147  A    between atoms: _358  and  _359
REMARK  148  A    between atoms: _362  and  _364
REMARK  149  A    between atoms: _364  and  _365
REMARK  150  A    between atoms: _364  and  _367
REMARK  151  A    between atoms: _367  and  _368
REMARK  152  A    between atoms: _371  and  _373
REMARK  153  A    between atoms: _373  and  _374
REMARK  154  A    between atoms: _376  and  _378
REMARK  155  A    between atoms: _378  and  _379
REMARK  156  A    between atoms: _382  and  _384
REMARK  157  A    between atoms: _384  and  _385
REMARK  158  A    between atoms: _384  and  _387
REMARK  159  A    between atoms: _387  and  _388
REMARK  160  A    between atoms: _391  and  _393
REMARK  161  A    between atoms: _393  and  _394
REMARK  162  A    between atoms: _393  and  _396
REMARK  163  A    between atoms: _396  and  _397
REMARK  164  A    between atoms: _400  and  _402
REMARK  165  A    between atoms: _402  and  _403
REMARK  166  A    between atoms: _402  and  _405
REMARK  167  A    between atoms: _405  and  _406
REMARK  168  A    between atoms: _409  and  _411
REMARK  169  A    between atoms: _411  and  _412
REMARK  170  A    between atoms: _411  and  _414
REMARK  171  A    between atoms: _417  and  _419
REMARK  172  A    between atoms: _419  and  _420
REMARK  173  A    between atoms: _419  and  _422
REMARK  174  A    between atoms: _422  and  _423
REMARK  175  A    between atoms: _426  and  _428
REMARK  176  A    between atoms: _428  and  _429
REMARK  177  A    between atoms: _428  and  _431
REMARK  178  A    between atoms: _431  and  _432
REMARK  179  A    between atoms: _432  and  _433
REMARK  180  A    between atoms: _433  and  _434
REMARK  181  A    between atoms: _434  and  _435
REMARK  182  A    between atoms: _439  and  _441
REMARK  183  A    between atoms: _441  and  _442
REMARK  184  A    between atoms: _441  and  _444
REMARK  185  A    between atoms: _444  and  _445
REMARK  186  A    between atoms: _445  and  _446
REMARK  187  A    between atoms: _448  and  _450
REMARK  188  A    between atoms: _450  and  _451
REMARK  189  A    between atoms: _450  and  _453
REMARK  190  A    between atoms: _453  and  _454
REMARK  191  A    between atoms: _457  and  _459
REMARK  192  A    between atoms: _459  and  _460
REMARK  193  A    between atoms: _462  and  _464
REMARK  194  A    between atoms: _464  and  _465
REMARK  195  A    between atoms: _467  and  _469
REMARK  196  A    between atoms: _469  and  _470
REMARK  197  A    between atoms: _469  and  _472
REMARK  198  A    between atoms: _472  and  _473
REMARK  199  A    between atoms: _476  and  _478
REMARK  200  A    between atoms: _478  and  _479
REMARK  201  A    between atoms: _481  and  _483
REMARK  202  A    between atoms: _483  and  _484
REMARK  203  A    between atoms: _486  and  _488
REMARK  204  A    between atoms: _488  and  _489
REMARK  205  A    between atoms: _488  and  _491
REMARK  206  A    between atoms: _491  and  _492
REMARK  207  A    between atoms: _498  and  _500
REMARK  208  A    between atoms: _500  and  _501
REMARK  209  A    between atoms: _500  and  _503
REMARK  210  A    between atoms: _503  and  _504
REMARK  211  A    between atoms: _507  and  _509
REMARK  212  A    between atoms: _509  and  _510
REMARK  213  A    between atoms: _509  and  _512
REMARK  214  A    between atoms: _515  and  _517
REMARK  215  A    between atoms: _517  and  _518
REMARK  216  A    between atoms: _517  and  _520
REMARK  217  A    between atoms: _520  and  _521
REMARK  218  A    between atoms: _525  and  _526
REMARK  219  A    between atoms: _531  and  _533
REMARK  220  A    between atoms: _533  and  _534
REMARK  221  A    between atoms: _533  and  _536
REMARK  222  A    between atoms: _536  and  _537
REMARK  223  A    between atoms: _541  and  _542
REMARK  224  A    between atoms: _547  and  _549
REMARK  225  A    between atoms: _549  and  _550
REMARK  226  A    between atoms: _549  and  _552
REMARK  227  A    between atoms: _555  and  _557
REMARK  228  A    between atoms: _557  and  _558
REMARK  229  A    between atoms: _557  and  _560
REMARK  230  A    between atoms: _560  and  _561
REMARK  231  A    between atoms: _566  and  _568
REMARK  232  A    between atoms: _568  and  _569
REMARK  233  A    between atoms: _568  and  _571
REMARK  234  A    between atoms: _571  and  _572
REMARK  235  A    between atoms: _575  and  _577
REMARK  236  A    between atoms: _577  and  _578
REMARK  237  A    between atoms: _577  and  _580
REMARK  238  A    between atoms: _580  and  _581
REMARK  239  A    between atoms: _584  and  _586
REMARK  240  A    between atoms: _586  and  _587
REMARK  241  A    between atoms: _589  and  _591
REMARK  242  A    between atoms: _591  and  _592
REMARK  243  A    between atoms: _591  and  _594
REMARK  244  A    between atoms: _594  and  _595
REMARK  245  A    between atoms: _595  and  _596
REMARK  246  A    between atoms: _596  and  _597
REMARK  247  A    between atoms: _606  and  _608
REMARK  248  A    between atoms: _608  and  _609
REMARK  249  A    between atoms: _608  and  _611
REMARK  250  A    between atoms: _611  and  _612
REMARK                            x       y       z     vdW  Elec       q    Type
REMARK                         _______ _______ _______ _____ _____    ______ ____
ROOT
ATOM      1  NE  ARG A   1       6.923  29.597   0.778  0.00  0.00    -0.265 N 
ATOM      2  HE  ARG A   1       7.100  30.172   1.627  0.00  0.00    +0.259 HD
ATOM      3  CZ  ARG A   1       6.147  28.525   0.900  0.00  0.00    +0.342 C 
ATOM      4  NH2 ARG A   1       5.627  28.212   2.079  0.00  0.00    -0.292 N 
ATOM      5 HH21 ARG A   1       5.826  28.806   2.909  0.00  0.00    +0.255 HD
ATOM      6 HH22 ARG A   1       5.020  27.373   2.173  0.00  0.00    +0.255 HD
ATOM      7  NH1 ARG A   1       5.893  27.765  -0.158  0.00  0.00    -0.292 N 
ATOM      8 HH11 ARG A   1       5.286  26.926  -0.062  0.00  0.00    +0.255 HD
ATOM      9 HH12 ARG A   1       6.301  28.008  -1.083  0.00  0.00    +0.255 HD
ENDROOT
BRANCH   1  10
ATOM     10  CD  ARG A   1       7.541  30.015  -0.473  0.00  0.00    +0.174 C 
BRANCH  10  11
ATOM     11  CG  ARG A   1       8.321  31.303  -0.305  0.00  0.00    +0.045 C 
BRANCH  11  12
ATOM     12  CB  ARG A   1       9.013  31.681  -1.590  0.00  0.00    +0.029 C 
BRANCH  12  13
ATOM     13  CA  ARG A   1       9.956  32.871  -1.441  0.00  0.00    +0.133 C 
BRANCH  13  14
ATOM     14  N   ARG A   1       9.201  34.106  -1.296  0.00  0.00    -0.239 NA
ATOM     15  H   ARG A   1       8.162  34.088  -1.331  0.00  0.00    +0.142 HD
ENDBRANCH  13  14
BRANCH  13  16
ATOM     16  C   ARG A   1      10.873  32.950  -2.649  0.00  0.00    +0.224 C 
ATOM     17  O   ARG A   1      10.470  33.415  -3.718  0.00  0.00    -0.287 OA
ENDBRANCH  13  16
ENDBRANCH  12  13
ENDBRANCH  11  12
ENDBRANCH  10  11
ENDBRANCH   1  10
TORSDOF 6
REMARK  Name = ../refined-set-2016/1w5x/1w5x_pocket.pdb
REMARK  250 active torsions:
REMARK  status: ('A' for Active; 'I' for Inactive)
REMARK    1  A    between atoms: _1  and  _3
REMARK    2  A    between atoms: _3  and  _4
REMARK    3  A    between atoms: _3  and  _6
REMARK    4  A    between atoms: _6  and  _7
REMARK    5  A    between atoms: _7  and  _8
REMARK    6  A    between atoms: _8  and  _9
REMARK    7  A    between atoms: _18  and  _20
REMARK    8  A    between atoms: _20  and  _21
REMARK    9  A    between atoms: _20  and  _23
REMARK   10  A    between atoms: _23  and  _24
REMARK   11  A    between atoms: _27  and  _29
REMARK   12  A    between atoms: _29  and  _30
REMARK   13  A    between atoms: _29  and  _32
REMARK   14  A    between atoms: _32  and  _33
REMARK   15  A    between atoms: _36  and  _38
REMARK   16  A    between atoms: _38  and  _39
REMARK   17  A    between atoms: _38  and  _41
REMARK   18  A    between atoms: _41  and  _42
REMARK   19  A    between atoms: _45  and  _47
REMARK   20  A    between atoms: _47  and  _48
REMARK   21  A    between atoms: _47  and  _50
REMARK   22  A    between atoms: _50  and  _51
REMARK   23  A    between atoms: _54  and  _56
REMARK   24  A    between atoms: _56  and  _57
REMARK   25  A    between atoms: _56  and  _59
REMARK   26  A    between atoms: _59  and  _60
REMARK   27  A    between atoms: _63  and  _65
REMARK   28  A    between atoms: _65  and  _66
REMARK   29  A    between atoms: _68  and  _70
REMARK   30  A    between atoms: _70  and  _71
REMARK   31  A    between atoms: _74  and  _76
REMARK   32  A    between atoms: _76  and  _77
REMARK   33  A    between atoms: _76  and  _79
REMARK   34  A    between atoms: _79  and  _80
REMARK   35  A    between atoms: _83  and  _85
REMARK   36  A    between atoms: _85  and  _86
REMARK   37  A    between atoms: _85  and  _88
REMARK   38  A    between atoms: _88  and  _89
REMARK   39  A    between atoms: _92  and  _94
REMARK   40  A    between atoms: _94  and  _95
REMARK   41  A    between atoms: _94  and  _97
REMARK   42  A    between atoms: _97  and  _98
REMARK   43  A    between atoms: _101  and  _103
REMARK   44  A    between atoms: _103  and  _104
REMARK   45  A    between atoms: _103  and  _106
REMARK   46  A    between atoms: _109  and  _111
REMARK   47  A    between atoms: _111  and  _112
REMARK   48  A    between atoms: _111  and  _114
REMARK   49  A    between atoms: _114  and  _115
REMARK   50  A    between atoms: _118  and  _120
REMARK   51  A    between atoms: _120  and  _121
REMARK   52  A    between atoms: _120  and  _123
REMARK   53  A    between atoms: _123  and  _124
REMARK   54  A    between atoms: _124  and  _125
REMARK   55  A    between atoms: _125  and  _126
REMARK   56  A    between atoms: _126  and  _127
REMARK   57  A    between atoms: _131  and  _133
REMARK   58  A    between atoms: _133  and  _134
REMARK   59  A    between atoms: _133  and  _136
REMARK   60  A    between atoms: _136  and  _137
REMARK   61  A    between atoms: _137  and  _138
REMARK   62  A    between atoms: _140  and  _142
REMARK   63  A    between atoms: _142  and  _143
REMARK   64  A    between atoms: _142  and  _145
REMARK   65  A    between atoms: _145  and  _146
REMARK   66  A    between atoms: _149  and  _151
REMARK   67  A    between atoms: _151  and  _152
REMARK   68  A    between atoms: _154  and  _156
REMARK   69  A    between atoms: _156  and  _157
REMARK   70  A    between atoms: _159  and  _161
REMARK   71  A    between atoms: _161  and  _162
REMARK   72  A    between atoms: _161  and  _164
REMARK   73  A    between atoms: _164  and  _165
REMARK   74  A    between atoms: _168  and  _170
REMARK   75  A    between atoms: _170  and  _171
REMARK   76  A    between atoms: _173  and  _175
REMARK   77  A    between atoms: _175  and  _176
REMARK   78  A    between atoms: _178  and  _180
REMARK   79  A    between atoms: _180  and  _181
REMARK   80  A    between atoms: _180  and  _183
REMARK   81  A    between atoms: _183  and  _184
REMARK   82  A    between atoms: _190  and  _192
REMARK   83  A    between atoms: _192  and  _193
REMARK   84  A    between atoms: _192  and  _195
REMARK   85  A    between atoms: _195  and  _196
REMARK   86  A    between atoms: _199  and  _201
REMARK   87  A    between atoms: _201  and  _202
REMARK   88  A    between atoms: _201  and  _204
REMARK   89  A    between atoms: _207  and  _209
REMARK   90  A    between atoms: _209  and  _210
REMARK   91  A    between atoms: _209  and  _212
REMARK   92  A    between atoms: _212  and  _213
REMARK   93  A    between atoms: _217  and  _218
REMARK   94  A    between atoms: _223  and  _225
REMARK   95  A    between atoms: _225  and  _226
REMARK   96  A    between atoms: _225  and  _228
REMARK   97  A    between atoms: _228  and  _229
REMARK   98  A    between atoms: _233  and  _234
REMARK   99  A    between atoms: _239  and  _241
REMARK  100  A    between atoms: _241  and  _242
REMARK  101  A    between atoms: _241  and  _244
REMARK  102  A    between atoms: _247  and  _249
REMARK  103  A    between atoms: _249  and  _250
REMARK  104  A    between atoms: _249  and  _252
REMARK  105  A    between atoms: _252  and  _253
REMARK  106  A    between atoms: _258  and  _260
REMARK  107  A    between atoms: _260  and  _261
REMARK  108  A    between atoms: _260  and  _263
REMARK  109  A    between atoms: _263  and  _264
REMARK  110  A    between atoms: _267  and  _269
REMARK  111  A    between atoms: _269  and  _270
REMARK  112  A    between atoms: _269  and  _272
REMARK  113  A    between atoms: _272  and  _273
REMARK  114  A    between atoms: _276  and  _278
REMARK  115  A    between atoms: _278  and  _279
REMARK  116  A    between atoms: _281  and  _283
REMARK  117  A    between atoms: _283  and  _284
REMARK  118  A    between atoms: _283  and  _286
REMARK  119  A    between atoms: _286  and  _287
REMARK  120  A    between atoms: _287  and  _288
REMARK  121  A    between atoms: _288  and  _289
REMARK  122  A    between atoms: _298  and  _300
REMARK  123  A    between atoms: _300  and  _301
REMARK  124  A    between atoms: _300  and  _303
REMARK  125  A    between atoms: _303  and  _304
REMARK  126  A    between atoms: _309  and  _311
REMARK  127  A    between atoms: _311  and  _312
REMARK  128  A    between atoms: _311  and  _314
REMARK  129  A    between atoms: _314  and  _315
REMARK  130  A    between atoms: _315  and  _316
REMARK  131  A    between atoms: _316  and  _317
REMARK  132  A    between atoms: _326  and  _328
REMARK  133  A    between atoms: _328  and  _329
REMARK  134  A    between atoms: _328  and  _331
REMARK  135  A    between atoms: _331  and  _332
REMARK  136  A    between atoms: _335  and  _337
REMARK  137  A    between atoms: _337  and  _338
REMARK  138  A    between atoms: _337  and  _340
REMARK  139  A    between atoms: _340  and  _341
REMARK  140  A    between atoms: _344  and  _346
REMARK  141  A    between atoms: _346  and  _347
REMARK  142  A    between atoms: _346  and  _349
REMARK  143  A    between atoms: _349  and  _350
REMARK  144  A    between atoms: _353  and  _355
REMARK  145  A    between atoms: _355  and  _356
REMARK  146  A    between atoms: _355  and  _358
REMARK  147  A    between atoms: _358  and  _359
REMARK  148  A    between atoms: _362  and  _364
REMARK  149  A    between atoms: _364  and  _365
REMARK  150  A    between atoms: _364  and  _367
REMARK  151  A    between atoms: _367  and  _368
REMARK  152  A    between atoms: _371  and  _373
REMARK  153  A    between atoms: _373  and  _374
REMARK  154  A    between atoms: _376  and  _378
REMARK  155  A    between atoms: _378  and  _379
REMARK  156  A    between atoms: _382  and  _384
REMARK  157  A    between atoms: _384  and  _385
REMARK  158  A    between atoms: _384  and  _387
REMARK  159  A    between atoms: _387  and  _388
REMARK  160  A    between atoms: _391  and  _393
REMARK  161  A    between atoms: _393  and  _394
REMARK  162  A    between atoms: _393  and  _396
REMARK  163  A    between atoms: _396  and  _397
REMARK  164  A    between atoms: _400  and  _402
REMARK  165  A    between atoms: _402  and  _403
REMARK  166  A    between atoms: _402  and  _405
REMARK  167  A    between atoms: _405  and  _406
REMARK  168  A    between atoms: _409  and  _411
REMARK  169  A    between atoms: _411  and  _412
REMARK  170  A    between atoms: _411  and  _414
REMARK  171  A    between atoms: _417  and  _419
REMARK  172  A    between atoms: _419  and  _420
REMARK  173  A    between atoms: _419  and  _422
REMARK  174  A    between atoms: _422  and  _423
REMARK  175  A    between atoms: _426  and  _428
REMARK  176  A    between atoms: _428  and  _429
REMARK  177  A    between atoms: _428  and  _431
REMARK  178  A    between atoms: _431  and  _432
REMARK  179  A    between atoms: _432  and  _433
REMARK  180  A    between atoms: _433  and  _434
REMARK  181  A    between atoms: _434  and  _435
REMARK  182  A    between atoms: _439  and  _441
REMARK  183  A    between atoms: _441  and  _442
REMARK  184  A    between atoms: _441  and  _444
REMARK  185  A    between atoms: _444  and  _445
REMARK  186  A    between atoms: _445  and  _446
REMARK  187  A    between atoms: _448  and  _450
REMARK  188  A    between atoms: _450  and  _451
REMARK  189  A    between atoms: _450  and  _453
REMARK  190  A    between atoms: _453  and  _454
REMARK  191  A    between atoms: _457  and  _459
REMARK  192  A    between atoms: _459  and  _460
REMARK  193  A    between atoms: _462  and  _464
REMARK  194  A    between atoms: _464  and  _465
REMARK  195  A    between atoms: _467  and  _469
REMARK  196  A    between atoms: _469  and  _470
REMARK  197  A    between atoms: _469  and  _472
REMARK  198  A    between atoms: _472  and  _473
REMARK  199  A    between atoms: _476  and  _478
REMARK  200  A    between atoms: _478  and  _479
REMARK  201  A    between atoms: _481  and  _483
REMARK  202  A    between atoms: _483  and  _484
REMARK  203  A    between atoms: _486  and  _488
REMARK  204  A    between atoms: _488  and  _489
REMARK  205  A    between atoms: _488  and  _491
REMARK  206  A    between atoms: _491  and  _492
REMARK  207  A    between atoms: _498  and  _500
REMARK  208  A    between atoms: _500  and  _501
REMARK  209  A    between atoms: _500  and  _503
REMARK  210  A    between atoms: _503  and  _504
REMARK  211  A    between atoms: _507  and  _509
REMARK  212  A    between atoms: _509  and  _510
REMARK  213  A    between atoms: _509  and  _512
REMARK  214  A    between atoms: _515  and  _517
REMARK  215  A    between atoms: _517  and  _518
REMARK  216  A    between atoms: _517  and  _520
REMARK  217  A    between atoms: _520  and  _521
REMARK  218  A    between atoms: _525  and  _526
REMARK  219  A    between atoms: _531  and  _533
REMARK  220  A    between atoms: _533  and  _534
REMARK  221  A    between atoms: _533  and  _536
REMARK  222  A    between atoms: _536  and  _537
REMARK  223  A    between atoms: _541  and  _542
REMARK  224  A    between atoms: _547  and  _549
REMARK  225  A    between atoms: _549  and  _550
REMARK  226  A    between atoms: _549  and  _552
REMARK  227  A    between atoms: _555  and  _557
REMARK  228  A    between atoms: _557  and  _558
REMARK  229  A    between atoms: _557  and  _560
REMARK  230  A    between atoms: _560  and  _561
REMARK  231  A    between atoms: _566  and  _568
REMARK  232  A    between atoms: _568  and  _569
REMARK  233  A    between atoms: _568  and  _571
REMARK  234  A    between atoms: _571  and  _572
REMARK  235  A    between atoms: _575  and  _577
REMARK  236  A    between atoms: _577  and  _578
REMARK  237  A    between atoms: _577  and  _580
REMARK  238  A    between atoms: _580  and  _581
REMARK  239  A    between atoms: _584  and  _586
REMARK  240  A    between atoms: _586  and  _587
REMARK  241  A    between atoms: _589  and  _591
REMARK  242  A    between atoms: _591  and  _592
REMARK  243  A    between atoms: _591  and  _594
REMARK  244  A    between atoms: _594  and  _595
REMARK  245  A    between atoms: _595  and  _596
REMARK  246  A    between atoms: _596  and  _597
REMARK  247  A    between atoms: _606  and  _608
REMARK  248  A    between atoms: _608  and  _609
REMARK  249  A    between atoms: _608  and  _611
REMARK  250  A    between atoms: _611  and  _612
REMARK                            x       y       z     vdW  Elec       q    Type
REMARK                         _______ _______ _______ _____ _____    ______ ____
ROOT
ATOM      1  CA  LEU A   1      11.279  30.597  -6.322  0.00  0.00    +0.133 C 
ENDROOT
BRANCH   1   2
ATOM      2  N   LEU A   1      11.687  31.586  -5.336  0.00  0.00    -0.239 NA
ATOM      3  H   LEU A   1      11.109  32.441  -5.207  0.00  0.00    +0.142 HD
ENDBRANCH   1   2
BRANCH   1   4
ATOM      4  C   LEU A   1      11.894  30.921  -7.671  0.00  0.00    +0.224 C 
ATOM      5  O   LEU A   1      11.902  32.074  -8.101  0.00  0.00    -0.287 OA
ENDBRANCH   1   4
BRANCH   1   6
ATOM      6  CB  LEU A   1       9.754  30.577  -6.453  0.00  0.00    +0.025 C 
BRANCH   6   7
ATOM      7  CG  LEU A   1       8.948  30.146  -5.227  0.00  0.00    +0.002 C 
ATOM      8  CD2 LEU A   1       9.316  28.725  -4.846  0.00  0.00    +0.000 C 
ATOM      9  CD1 LEU A   1       7.459  30.239  -5.543  0.00  0.00    +0.000 C 
ENDBRANCH   6   7
ENDBRANCH   1   6
TORSDOF 4
REMARK  Name = ../refined-set-2016/1w5x/1w5x_pocket.pdb
REMARK  250 active torsions:
REMARK  status: ('A' for Active; 'I' for Inactive)
REMARK    1  A    between atoms: _1  and  _3
REMARK    2  A    between atoms: _3  and  _4
REMARK    3  A    between atoms: _3  and  _6
REMARK    4  A    between atoms: _6  and  _7
REMARK    5  A    between atoms: _7  and  _8
REMARK    6  A    between atoms: _8  and  _9
REMARK    7  A    between atoms: _18  and  _20
REMARK    8  A    between atoms: _20  and  _21
REMARK    9  A    between atoms: _20  and  _23
REMARK   10  A    between atoms: _23  and  _24
REMARK   11  A    between atoms: _27  and  _29
REMARK   12  A    between atoms: _29  and  _30
REMARK   13  A    between atoms: _29  and  _32
REMARK   14  A    between atoms: _32  and  _33
REMARK   15  A    between atoms: _36  and  _38
REMARK   16  A    between atoms: _38  and  _39
REMARK   17  A    between atoms: _38  and  _41
REMARK   18  A    between atoms: _41  and  _42
REMARK   19  A    between atoms: _45  and  _47
REMARK   20  A    between atoms: _47  and  _48
REMARK   21  A    between atoms: _47  and  _50
REMARK   22  A    between atoms: _50  and  _51
REMARK   23  A    between atoms: _54  and  _56
REMARK   24  A    between atoms: _56  and  _57
REMARK   25  A    between atoms: _56  and  _59
REMARK   26  A    between atoms: _59  and  _60
REMARK   27  A    between atoms: _63  and  _65
REMARK   28  A    between atoms: _65  and  _66
REMARK   29  A    between atoms: _68  and  _70
REMARK   30  A    between atoms: _70  and  _71
REMARK   31  A    between atoms: _74  and  _76
REMARK   32  A    between atoms: _76  and  _77
REMARK   33  A    between atoms: _76  and  _79
REMARK   34  A    between atoms: _79  and  _80
REMARK   35  A    between atoms: _83  and  _85
REMARK   36  A    between atoms: _85  and  _86
REMARK   37  A    between atoms: _85  and  _88
REMARK   38  A    between atoms: _88  and  _89
REMARK   39  A    between atoms: _92  and  _94
REMARK   40  A    between atoms: _94  and  _95
REMARK   41  A    between atoms: _94  and  _97
REMARK   42  A    between atoms: _97  and  _98
REMARK   43  A    between atoms: _101  and  _103
REMARK   44  A    between atoms: _103  and  _104
REMARK   45  A    between atoms: _103  and  _106
REMARK   46  A    between atoms: _109  and  _111
REMARK   47  A    between atoms: _111  and  _112
REMARK   48  A    between atoms: _111  and  _114
REMARK   49  A    between atoms: _114  and  _115
REMARK   50  A    between atoms: _118  and  _120
REMARK   51  A    between atoms: _120  and  _121
REMARK   52  A    between atoms: _120  and  _123
REMARK   53  A    between atoms: _123  and  _124
REMARK   54  A    between atoms: _124  and  _125
REMARK   55  A    between atoms: _125  and  _126
REMARK   56  A    between atoms: _126  and  _127
REMARK   57  A    between atoms: _131  and  _133
REMARK   58  A    between atoms: _133  and  _134
REMARK   59  A    between atoms: _133  and  _136
REMARK   60  A    between atoms: _136  and  _137
REMARK   61  A    between atoms: _137  and  _138
REMARK   62  A    between atoms: _140  and  _142
REMARK   63  A    between atoms: _142  and  _143
REMARK   64  A    between atoms: _142  and  _145
REMARK   65  A    between atoms: _145  and  _146
REMARK   66  A    between atoms: _149  and  _151
REMARK   67  A    between atoms: _151  and  _152
REMARK   68  A    between atoms: _154  and  _156
REMARK   69  A    between atoms: _156  and  _157
REMARK   70  A    between atoms: _159  and  _161
REMARK   71  A    between atoms: _161  and  _162
REMARK   72  A    between atoms: _161  and  _164
REMARK   73  A    between atoms: _164  and  _165
REMARK   74  A    between atoms: _168  and  _170
REMARK   75  A    between atoms: _170  and  _171
REMARK   76  A    between atoms: _173  and  _175
REMARK   77  A    between atoms: _175  and  _176
REMARK   78  A    between atoms: _178  and  _180
REMARK   79  A    between atoms: _180  and  _181
REMARK   80  A    between atoms: _180  and  _183
REMARK   81  A    between atoms: _183  and  _184
REMARK   82  A    between atoms: _190  and  _192
REMARK   83  A    between atoms: _192  and  _193
REMARK   84  A    between atoms: _192  and  _195
REMARK   85  A    between atoms: _195  and  _196
REMARK   86  A    between atoms: _199  and  _201
REMARK   87  A    between atoms: _201  and  _202
REMARK   88  A    between atoms: _201  and  _204
REMARK   89  A    between atoms: _207  and  _209
REMARK   90  A    between atoms: _209  and  _210
REMARK   91  A    between atoms: _209  and  _212
REMARK   92  A    between atoms: _212  and  _213
REMARK   93  A    between atoms: _217  and  _218
REMARK   94  A    between atoms: _223  and  _225
REMARK   95  A    between atoms: _225  and  _226
REMARK   96  A    between atoms: _225  and  _228
REMARK   97  A    between atoms: _228  and  _229
REMARK   98  A    between atoms: _233  and  _234
REMARK   99  A    between atoms: _239  and  _241
REMARK  100  A    between atoms: _241  and  _242
REMARK  101  A    between atoms: _241  and  _244
REMARK  102  A    between atoms: _247  and  _249
REMARK  103  A    between atoms: _249  and  _250
REMARK  104  A    between atoms: _249  and  _252
REMARK  105  A    between atoms: _252  and  _253
REMARK  106  A    between atoms: _258  and  _260
REMARK  107  A    between atoms: _260  and  _261
REMARK  108  A    between atoms: _260  and  _263
REMARK  109  A    between atoms: _263  and  _264
REMARK  110  A    between atoms: _267  and  _269
REMARK  111  A    between atoms: _269  and  _270
REMARK  112  A    between atoms: _269  and  _272
REMARK  113  A    between atoms: _272  and  _273
REMARK  114  A    between atoms: _276  and  _278
REMARK  115  A    between atoms: _278  and  _279
REMARK  116  A    between atoms: _281  and  _283
REMARK  117  A    between atoms: _283  and  _284
REMARK  118  A    between atoms: _283  and  _286
REMARK  119  A    between atoms: _286  and  _287
REMARK  120  A    between atoms: _287  and  _288
REMARK  121  A    between atoms: _288  and  _289
REMARK  122  A    between atoms: _298  and  _300
REMARK  123  A    between atoms: _300  and  _301
REMARK  124  A    between atoms: _300  and  _303
REMARK  125  A    between atoms: _303  and  _304
REMARK  126  A    between atoms: _309  and  _311
REMARK  127  A    between atoms: _311  and  _312
REMARK  128  A    between atoms: _311  and  _314
REMARK  129  A    between atoms: _314  and  _315
REMARK  130  A    between atoms: _315  and  _316
REMARK  131  A    between atoms: _316  and  _317
REMARK  132  A    between atoms: _326  and  _328
REMARK  133  A    between atoms: _328  and  _329
REMARK  134  A    between atoms: _328  and  _331
REMARK  135  A    between atoms: _331  and  _332
REMARK  136  A    between atoms: _335  and  _337
REMARK  137  A    between atoms: _337  and  _338
REMARK  138  A    between atoms: _337  and  _340
REMARK  139  A    between atoms: _340  and  _341
REMARK  140  A    between atoms: _344  and  _346
REMARK  141  A    between atoms: _346  and  _347
REMARK  142  A    between atoms: _346  and  _349
REMARK  143  A    between atoms: _349  and  _350
REMARK  144  A    between atoms: _353  and  _355
REMARK  145  A    between atoms: _355  and  _356
REMARK  146  A    between atoms: _355  and  _358
REMARK  147  A    between atoms: _358  and  _359
REMARK  148  A    between atoms: _362  and  _364
REMARK  149  A    between atoms: _364  and  _365
REMARK  150  A    between atoms: _364  and  _367
REMARK  151  A    between atoms: _367  and  _368
REMARK  152  A    between atoms: _371  and  _373
REMARK  153  A    between atoms: _373  and  _374
REMARK  154  A    between atoms: _376  and  _378
REMARK  155  A    between atoms: _378  and  _379
REMARK  156  A    between atoms: _382  and  _384
REMARK  157  A    between atoms: _384  and  _385
REMARK  158  A    between atoms: _384  and  _387
REMARK  159  A    between atoms: _387  and  _388
REMARK  160  A    between atoms: _391  and  _393
REMARK  161  A    between atoms: _393  and  _394
REMARK  162  A    between atoms: _393  and  _396
REMARK  163  A    between atoms: _396  and  _397
REMARK  164  A    between atoms: _400  and  _402
REMARK  165  A    between atoms: _402  and  _403
REMARK  166  A    between atoms: _402  and  _405
REMARK  167  A    between atoms: _405  and  _406
REMARK  168  A    between atoms: _409  and  _411
REMARK  169  A    between atoms: _411  and  _412
REMARK  170  A    between atoms: _411  and  _414
REMARK  171  A    between atoms: _417  and  _419
REMARK  172  A    between atoms: _419  and  _420
REMARK  173  A    between atoms: _419  and  _422
REMARK  174  A    between atoms: _422  and  _423
REMARK  175  A    between atoms: _426  and  _428
REMARK  176  A    between atoms: _428  and  _429
REMARK  177  A    between atoms: _428  and  _431
REMARK  178  A    between atoms: _431  and  _432
REMARK  179  A    between atoms: _432  and  _433
REMARK  180  A    between atoms: _433  and  _434
REMARK  181  A    between atoms: _434  and  _435
REMARK  182  A    between atoms: _439  and  _441
REMARK  183  A    between atoms: _441  and  _442
REMARK  184  A    between atoms: _441  and  _444
REMARK  185  A    between atoms: _444  and  _445
REMARK  186  A    between atoms: _445  and  _446
REMARK  187  A    between atoms: _448  and  _450
REMARK  188  A    between atoms: _450  and  _451
REMARK  189  A    between atoms: _450  and  _453
REMARK  190  A    between atoms: _453  and  _454
REMARK  191  A    between atoms: _457  and  _459
REMARK  192  A    between atoms: _459  and  _460
REMARK  193  A    between atoms: _462  and  _464
REMARK  194  A    between atoms: _464  and  _465
REMARK  195  A    between atoms: _467  and  _469
REMARK  196  A    between atoms: _469  and  _470
REMARK  197  A    between atoms: _469  and  _472
REMARK  198  A    between atoms: _472  and  _473
REMARK  199  A    between atoms: _476  and  _478
REMARK  200  A    between atoms: _478  and  _479
REMARK  201  A    between atoms: _481  and  _483
REMARK  202  A    between atoms: _483  and  _484
REMARK  203  A    between atoms: _486  and  _488
REMARK  204  A    between atoms: _488  and  _489
REMARK  205  A    between atoms: _488  and  _491
REMARK  206  A    between atoms: _491  and  _492
REMARK  207  A    between atoms: _498  and  _500
REMARK  208  A    between atoms: _500  and  _501
REMARK  209  A    between atoms: _500  and  _503
REMARK  210  A    between atoms: _503  and  _504
REMARK  211  A    between atoms: _507  and  _509
REMARK  212  A    between atoms: _509  and  _510
REMARK  213  A    between atoms: _509  and  _512
REMARK  214  A    between atoms: _515  and  _517
REMARK  215  A    between atoms: _517  and  _518
REMARK  216  A    between atoms: _517  and  _520
REMARK  217  A    between atoms: _520  and  _521
REMARK  218  A    between atoms: _525  and  _526
REMARK  219  A    between atoms: _531  and  _533
REMARK  220  A    between atoms: _533  and  _534
REMARK  221  A    between atoms: _533  and  _536
REMARK  222  A    between atoms: _536  and  _537
REMARK  223  A    between atoms: _541  and  _542
REMARK  224  A    between atoms: _547  and  _549
REMARK  225  A    between atoms: _549  and  _550
REMARK  226  A    between atoms: _549  and  _552
REMARK  227  A    between atoms: _555  and  _557
REMARK  228  A    between atoms: _557  and  _558
REMARK  229  A    between atoms: _557  and  _560
REMARK  230  A    between atoms: _560  and  _561
REMARK  231  A    between atoms: _566  and  _568
REMARK  232  A    between atoms: _568  and  _569
REMARK  233  A    between atoms: _568  and  _571
REMARK  234  A    between atoms: _571  and  _572
REMARK  235  A    between atoms: _575  and  _577
REMARK  236  A    between atoms: _577  and  _578
REMARK  237  A    between atoms: _577  and  _580
REMARK  238  A    between atoms: _580  and  _581
REMARK  239  A    between atoms: _584  and  _586
REMARK  240  A    between atoms: _586  and  _587
REMARK  241  A    between atoms: _589  and  _591
REMARK  242  A    between atoms: _591  and  _592
REMARK  243  A    between atoms: _591  and  _594
REMARK  244  A    between atoms: _594  and  _595
REMARK  245  A    between atoms: _595  and  _596
REMARK  246  A    between atoms: _596  and  _597
REMARK  247  A    between atoms: _606  and  _608
REMARK  248  A    between atoms: _608  and  _609
REMARK  249  A    between atoms: _608  and  _611
REMARK  250  A    between atoms: _611  and  _612
REMARK                            x       y       z     vdW  Elec       q    Type
REMARK                         _______ _______ _______ _____ _____    ______ ____
ROOT
ATOM      1  C   ALA A   6      19.669  21.489   2.098  0.00  0.00    +0.241 C 
ATOM      2  N   ASP A   7      20.111  20.369   2.663  0.00  0.00    -0.297 N 
ATOM      3  H   ASP A   7      19.522  19.875   3.363  0.00  0.00    +0.150 HD
ATOM      4  O   ALA A   6      20.323  22.113   1.266  0.00  0.00    -0.273 OA
ENDROOT
BRANCH   1   5
ATOM      5  CA  ALA A   6      18.289  21.980   2.519  0.00  0.00    +0.149 C 
ATOM      6  CB  ALA A   6      17.333  21.907   1.327  0.00  0.00    +0.031 C 
BRANCH   5   9
ATOM      7  C   GLY A   5      18.396  23.642   4.306  0.00  0.00    +0.243 C 
ATOM      8  O   GLY A   5      18.356  22.782   5.185  0.00  0.00    -0.273 OA
ATOM      9  N   ALA A   6      18.369  23.351   3.008  0.00  0.00    -0.297 N 
ATOM     10  H   ALA A   6      18.406  24.129   2.318  0.00  0.00    +0.150 HD
BRANCH   7  11
ATOM     11  CA  GLY A   5      18.476  25.116   4.668  0.00  0.00    +0.176 C 
BRANCH  11  14
ATOM     12  C   THR A   4      19.887  26.222   3.052  0.00  0.00    +0.243 C 
ATOM     13  O   THR A   4      20.901  25.729   3.546  0.00  0.00    -0.273 OA
ATOM     14  N   GLY A   5      18.667  25.986   3.520  0.00  0.00    -0.295 N 
ATOM     15  H   GLY A   5      17.843  26.426   3.062  0.00  0.00    +0.150 HD
BRANCH  12  16
ATOM     16  CA  THR A   4      19.983  27.150   1.847  0.00  0.00    +0.176 C 
BRANCH  16  18
ATOM     17  C   ASP A   3      18.123  26.297   0.547  0.00  0.00    +0.241 C 
ATOM     18  N   THR A   4      18.691  27.310   1.196  0.00  0.00    -0.295 N 
ATOM     19  H   THR A   4      18.205  28.229   1.239  0.00  0.00    +0.150 HD
ATOM     20  O   ASP A   3      18.640  25.185   0.471  0.00  0.00    -0.273 OA
BRANCH  17  21
ATOM     21  CA  ASP A   3      16.769  26.570  -0.101  0.00  0.00    +0.160 C 
BRANCH  21  24
ATOM     22  C   LEU A   2      16.403  27.947  -2.065  0.00  0.00    +0.241 C 
ATOM     23  O   LEU A   2      16.078  28.921  -1.385  0.00  0.00    -0.273 OA
ATOM     24  N   ASP A   3      16.807  26.801  -1.537  0.00  0.00    -0.297 N 
ATOM     25  H   ASP A   3      17.159  26.049  -2.163  0.00  0.00    +0.150 HD
BRANCH  22  26
ATOM     26  CA  LEU A   2      16.381  28.008  -3.587  0.00  0.00    +0.149 C 
BRANCH  26  29
ATOM     27  C   LEU A   1      14.259  26.855  -3.871  0.00  0.00    +0.238 C 
ATOM     28  O   LEU A   1      14.787  25.763  -3.684  0.00  0.00    -0.274 OA
ATOM     29  N   LEU A   2      14.948  27.993  -3.883  0.00  0.00    -0.297 N 
ATOM     30  H   LEU A   2      14.461  28.885  -4.106  0.00  0.00    +0.150 HD
BRANCH  27  31
ATOM     31  CA  LEU A   1      12.757  26.951  -4.126  0.00  0.00    +0.145 C 
BRANCH  31  32
ATOM     32  N   LEU A   1      12.342  26.015  -5.151  0.00  0.00    -0.238 NA
ATOM     33  H   LEU A   1      12.211  25.015  -4.896  0.00  0.00    +0.142 HD
ENDBRANCH  31  32
BRANCH  31  34
ATOM     34  CB  LEU A   1      11.992  26.629  -2.840  0.00  0.00    +0.026 C 
BRANCH  34  35
ATOM     35  CG  LEU A   1      12.158  27.512  -1.604  0.00  0.00    +0.002 C 
ATOM     36  CD2 LEU A   1      11.364  26.905  -0.457  0.00  0.00    +0.000 C 
ATOM     37  CD1 LEU A   1      11.665  28.910  -1.889  0.00  0.00    +0.000 C 
ENDBRANCH  34  35
ENDBRANCH  31  34
ENDBRANCH  27  31
ENDBRANCH  26  29
BRANCH  26  38
ATOM     38  CB  LEU A   2      17.016  29.302  -4.086  0.00  0.00    +0.029 C 
BRANCH  38  39
ATOM     39  CG  LEU A   2      16.932  29.517  -5.596  0.00  0.00    +0.002 C 
ATOM     40  CD2 LEU A   2      17.725  30.767  -5.953  0.00  0.00    +0.000 C 
ATOM     41  CD1 LEU A   2      17.482  28.298  -6.342  0.00  0.00    +0.000 C 
ENDBRANCH  38  39
ENDBRANCH  26  38
ENDBRANCH  22  26
ENDBRANCH  21  24
BRANCH  21  42
ATOM     42  CB  ASP A   3      15.828  25.392   0.141  0.00  0.00    +0.143 C 
BRANCH  42  43
ATOM     43  CG  ASP A   3      15.472  25.214   1.592  0.00  0.00    +0.367 C 
ATOM     44  OD2 ASP A   3      16.107  25.860   2.451  0.00  0.00    -0.246 OA
ATOM     45  OD1 ASP A   3      14.554  24.422   1.860  0.00  0.00    -0.246 OA
ENDBRANCH  42  43
ENDBRANCH  21  42
ENDBRANCH  17  21
ENDBRANCH  16  18
BRANCH  16  46
ATOM     46  CB  THR A   4      20.542  28.501   2.319  0.00  0.00    +0.137 C 
ATOM     47  CG2 THR A   4      20.823  29.403   1.131  0.00  0.00    +0.034 C 
BRANCH  46  48
ATOM     48  OG1 THR A   4      19.593  29.131   3.186  0.00  0.00    -0.382 OA
ATOM     49  HG1 THR A   4      19.427  28.549   3.970  0.00  0.00    +0.210 HD
ENDBRANCH  46  48
ENDBRANCH  16  46
ENDBRANCH  12  16
ENDBRANCH  11  14
ENDBRANCH   7  11
ENDBRANCH   5   9
ENDBRANCH   1   5
BRANCH   2  50
ATOM     50  CA  ASP A   7      21.420  19.829   2.305  0.00  0.00    +0.160 C 
BRANCH  50  51
ATOM     51  C   ASP A   7      21.392  19.278   0.889  0.00  0.00    +0.241 C 
ATOM     52  N   ASP A   8      20.265  18.677   0.534  0.00  0.00    -0.297 N 
ATOM     53  H   ASP A   8      19.475  18.642   1.210  0.00  0.00    +0.150 HD
ATOM     54  O   ASP A   7      22.367  19.386   0.147  0.00  0.00    -0.273 OA
BRANCH  52  55
ATOM     55  CA  ASP A   8      20.105  18.067  -0.773  0.00  0.00    +0.160 C 
BRANCH  55  56
ATOM     56  C   ASP A   8      18.981  18.704  -1.570  0.00  0.00    +0.241 C 
ATOM     57  O   ASP A   8      18.264  19.577  -1.087  0.00  0.00    -0.273 OA
ATOM     58  N   THR A   9      18.836  18.235  -2.800  0.00  0.00    -0.295 N 
ATOM     59  H   THR A   9      19.478  17.484  -3.125  0.00  0.00    +0.150 HD
BRANCH  58  60
ATOM     60  CA  THR A   9      17.820  18.723  -3.713  0.00  0.00    +0.176 C 
BRANCH  60  61
ATOM     61  C   THR A   9      16.759  17.642  -3.848  0.00  0.00    +0.243 C 
ATOM     62  N   VAL A  10      15.510  18.002  -3.585  0.00  0.00    -0.297 N 
ATOM     63  H   VAL A  10      15.301  18.981  -3.304  0.00  0.00    +0.150 HD
ATOM     64  O   THR A   9      17.069  16.495  -4.166  0.00  0.00    -0.273 OA
BRANCH  62  65
ATOM     65  CA  VAL A  10      14.433  17.034  -3.688  0.00  0.00    +0.149 C 
BRANCH  65  66
ATOM     66  C   VAL A  10      13.291  17.612  -4.486  0.00  0.00    +0.241 C 
ATOM     67  O   VAL A  10      12.841  18.727  -4.233  0.00  0.00    -0.273 OA
ATOM     68  N   LEU A  11      12.830  16.843  -5.462  0.00  0.00    -0.298 N 
ATOM     69  H   LEU A  11      13.257  15.908  -5.618  0.00  0.00    +0.150 HD
BRANCH  68  70
ATOM     70  CA  LEU A  11      11.743  17.277  -6.317  0.00  0.00    +0.137 C 
BRANCH  70  71
ATOM     71  C   LEU A  11      10.526  16.405  -6.119  0.00  0.00    +0.227 C 
ATOM     72  O   LEU A  11      10.623  15.260  -5.672  0.00  0.00    -0.286 OA
ENDBRANCH  70  71
BRANCH  70  73
ATOM     73  CB  LEU A  11      12.171  17.220  -7.784  0.00  0.00    +0.028 C 
BRANCH  73  74
ATOM     74  CG  LEU A  11      13.414  18.037  -8.141  0.00  0.00    +0.002 C 
ATOM     75  CD2 LEU A  11      13.159  19.504  -7.863  0.00  0.00    +0.000 C 
ATOM     76  CD1 LEU A  11      13.768  17.825  -9.603  0.00  0.00    +0.000 C 
ENDBRANCH  73  74
ENDBRANCH  70  73
ENDBRANCH  68  70
ENDBRANCH  65  66
BRANCH  65  77
ATOM     77  CB  VAL A  10      13.930  16.611  -2.306  0.00  0.00    +0.027 C 
ATOM     78  CG2 VAL A  10      15.098  16.116  -1.478  0.00  0.00    +0.002 C 
ATOM     79  CG1 VAL A  10      12.892  15.503  -2.446  0.00  0.00    +0.002 C 
ENDBRANCH  65  77
ENDBRANCH  62  65
ENDBRANCH  60  61
BRANCH  60  80
ATOM     80  CB  THR A   9      18.447  19.009  -5.082  0.00  0.00    +0.137 C 
ATOM     81  CG2 THR A   9      17.383  19.357  -6.121  0.00  0.00    +0.034 C 
BRANCH  80  82
ATOM     82  OG1 THR A   9      19.371  20.092  -4.946  0.00  0.00    -0.382 OA
ATOM     83  HG1 THR A   9      20.077  19.843  -4.298  0.00  0.00    +0.210 HD
ENDBRANCH  80  82
ENDBRANCH  60  80
ENDBRANCH  58  60
ENDBRANCH  55  56
BRANCH  55  84
ATOM     84  CB  ASP A   8      19.821  16.570  -0.618  0.00  0.00    +0.143 C 
BRANCH  84  85
ATOM     85  CG  ASP A   8      20.795  15.886   0.325  0.00  0.00    +0.367 C 
ATOM     86  OD2 ASP A   8      20.339  15.277   1.317  0.00  0.00    -0.246 OA
ATOM     87  OD1 ASP A   8      22.013  15.957   0.074  0.00  0.00    -0.246 OA
ENDBRANCH  84  85
ENDBRANCH  55  84
ENDBRANCH  52  55
ENDBRANCH  50  51
BRANCH  50  88
ATOM     88  CB  ASP A   7      21.820  18.687   3.234  0.00  0.00    +0.143 C 
BRANCH  88  89
ATOM     89  CG  ASP A   7      21.926  19.117   4.673  0.00  0.00    +0.367 C 
ATOM     90  OD2 ASP A   7      21.601  18.294   5.550  0.00  0.00    -0.246 OA
ATOM     91  OD1 ASP A   7      22.345  20.263   4.924  0.00  0.00    -0.246 OA
ENDBRANCH  88  89
ENDBRANCH  50  88
ENDBRANCH   2  50
TORSDOF 39
REMARK  Name = ../refined-set-2016/1w5x/1w5x_pocket.pdb
REMARK  250 active torsions:
REMARK  status: ('A' for Active; 'I' for Inactive)
REMARK    1  A    between atoms: _1  and  _3
REMARK    2  A    between atoms: _3  and  _4
REMARK    3  A    between atoms: _3  and  _6
REMARK    4  A    between atoms: _6  and  _7
REMARK    5  A    between atoms: _7  and  _8
REMARK    6  A    between atoms: _8  and  _9
REMARK    7  A    between atoms: _18  and  _20
REMARK    8  A    between atoms: _20  and  _21
REMARK    9  A    between atoms: _20  and  _23
REMARK   10  A    between atoms: _23  and  _24
REMARK   11  A    between atoms: _27  and  _29
REMARK   12  A    between atoms: _29  and  _30
REMARK   13  A    between atoms: _29  and  _32
REMARK   14  A    between atoms: _32  and  _33
REMARK   15  A    between atoms: _36  and  _38
REMARK   16  A    between atoms: _38  and  _39
REMARK   17  A    between atoms: _38  and  _41
REMARK   18  A    between atoms: _41  and  _42
REMARK   19  A    between atoms: _45  and  _47
REMARK   20  A    between atoms: _47  and  _48
REMARK   21  A    between atoms: _47  and  _50
REMARK   22  A    between atoms: _50  and  _51
REMARK   23  A    between atoms: _54  and  _56
REMARK   24  A    between atoms: _56  and  _57
REMARK   25  A    between atoms: _56  and  _59
REMARK   26  A    between atoms: _59  and  _60
REMARK   27  A    between atoms: _63  and  _65
REMARK   28  A    between atoms: _65  and  _66
REMARK   29  A    between atoms: _68  and  _70
REMARK   30  A    between atoms: _70  and  _71
REMARK   31  A    between atoms: _74  and  _76
REMARK   32  A    between atoms: _76  and  _77
REMARK   33  A    between atoms: _76  and  _79
REMARK   34  A    between atoms: _79  and  _80
REMARK   35  A    between atoms: _83  and  _85
REMARK   36  A    between atoms: _85  and  _86
REMARK   37  A    between atoms: _85  and  _88
REMARK   38  A    between atoms: _88  and  _89
REMARK   39  A    between atoms: _92  and  _94
REMARK   40  A    between atoms: _94  and  _95
REMARK   41  A    between atoms: _94  and  _97
REMARK   42  A    between atoms: _97  and  _98
REMARK   43  A    between atoms: _101  and  _103
REMARK   44  A    between atoms: _103  and  _104
REMARK   45  A    between atoms: _103  and  _106
REMARK   46  A    between atoms: _109  and  _111
REMARK   47  A    between atoms: _111  and  _112
REMARK   48  A    between atoms: _111  and  _114
REMARK   49  A    between atoms: _114  and  _115
REMARK   50  A    between atoms: _118  and  _120
REMARK   51  A    between atoms: _120  and  _121
REMARK   52  A    between atoms: _120  and  _123
REMARK   53  A    between atoms: _123  and  _124
REMARK   54  A    between atoms: _124  and  _125
REMARK   55  A    between atoms: _125  and  _126
REMARK   56  A    between atoms: _126  and  _127
REMARK   57  A    between atoms: _131  and  _133
REMARK   58  A    between atoms: _133  and  _134
REMARK   59  A    between atoms: _133  and  _136
REMARK   60  A    between atoms: _136  and  _137
REMARK   61  A    between atoms: _137  and  _138
REMARK   62  A    between atoms: _140  and  _142
REMARK   63  A    between atoms: _142  and  _143
REMARK   64  A    between atoms: _142  and  _145
REMARK   65  A    between atoms: _145  and  _146
REMARK   66  A    between atoms: _149  and  _151
REMARK   67  A    between atoms: _151  and  _152
REMARK   68  A    between atoms: _154  and  _156
REMARK   69  A    between atoms: _156  and  _157
REMARK   70  A    between atoms: _159  and  _161
REMARK   71  A    between atoms: _161  and  _162
REMARK   72  A    between atoms: _161  and  _164
REMARK   73  A    between atoms: _164  and  _165
REMARK   74  A    between atoms: _168  and  _170
REMARK   75  A    between atoms: _170  and  _171
REMARK   76  A    between atoms: _173  and  _175
REMARK   77  A    between atoms: _175  and  _176
REMARK   78  A    between atoms: _178  and  _180
REMARK   79  A    between atoms: _180  and  _181
REMARK   80  A    between atoms: _180  and  _183
REMARK   81  A    between atoms: _183  and  _184
REMARK   82  A    between atoms: _190  and  _192
REMARK   83  A    between atoms: _192  and  _193
REMARK   84  A    between atoms: _192  and  _195
REMARK   85  A    between atoms: _195  and  _196
REMARK   86  A    between atoms: _199  and  _201
REMARK   87  A    between atoms: _201  and  _202
REMARK   88  A    between atoms: _201  and  _204
REMARK   89  A    between atoms: _207  and  _209
REMARK   90  A    between atoms: _209  and  _210
REMARK   91  A    between atoms: _209  and  _212
REMARK   92  A    between atoms: _212  and  _213
REMARK   93  A    between atoms: _217  and  _218
REMARK   94  A    between atoms: _223  and  _225
REMARK   95  A    between atoms: _225  and  _226
REMARK   96  A    between atoms: _225  and  _228
REMARK   97  A    between atoms: _228  and  _229
REMARK   98  A    between atoms: _233  and  _234
REMARK   99  A    between atoms: _239  and  _241
REMARK  100  A    between atoms: _241  and  _242
REMARK  101  A    between atoms: _241  and  _244
REMARK  102  A    between atoms: _247  and  _249
REMARK  103  A    between atoms: _249  and  _250
REMARK  104  A    between atoms: _249  and  _252
REMARK  105  A    between atoms: _252  and  _253
REMARK  106  A    between atoms: _258  and  _260
REMARK  107  A    between atoms: _260  and  _261
REMARK  108  A    between atoms: _260  and  _263
REMARK  109  A    between atoms: _263  and  _264
REMARK  110  A    between atoms: _267  and  _269
REMARK  111  A    between atoms: _269  and  _270
REMARK  112  A    between atoms: _269  and  _272
REMARK  113  A    between atoms: _272  and  _273
REMARK  114  A    between atoms: _276  and  _278
REMARK  115  A    between atoms: _278  and  _279
REMARK  116  A    between atoms: _281  and  _283
REMARK  117  A    between atoms: _283  and  _284
REMARK  118  A    between atoms: _283  and  _286
REMARK  119  A    between atoms: _286  and  _287
REMARK  120  A    between atoms: _287  and  _288
REMARK  121  A    between atoms: _288  and  _289
REMARK  122  A    between atoms: _298  and  _300
REMARK  123  A    between atoms: _300  and  _301
REMARK  124  A    between atoms: _300  and  _303
REMARK  125  A    between atoms: _303  and  _304
REMARK  126  A    between atoms: _309  and  _311
REMARK  127  A    between atoms: _311  and  _312
REMARK  128  A    between atoms: _311  and  _314
REMARK  129  A    between atoms: _314  and  _315
REMARK  130  A    between atoms: _315  and  _316
REMARK  131  A    between atoms: _316  and  _317
REMARK  132  A    between atoms: _326  and  _328
REMARK  133  A    between atoms: _328  and  _329
REMARK  134  A    between atoms: _328  and  _331
REMARK  135  A    between atoms: _331  and  _332
REMARK  136  A    between atoms: _335  and  _337
REMARK  137  A    between atoms: _337  and  _338
REMARK  138  A    between atoms: _337  and  _340
REMARK  139  A    between atoms: _340  and  _341
REMARK  140  A    between atoms: _344  and  _346
REMARK  141  A    between atoms: _346  and  _347
REMARK  142  A    between atoms: _346  and  _349
REMARK  143  A    between atoms: _349  and  _350
REMARK  144  A    between atoms: _353  and  _355
REMARK  145  A    between atoms: _355  and  _356
REMARK  146  A    between atoms: _355  and  _358
REMARK  147  A    between atoms: _358  and  _359
REMARK  148  A    between atoms: _362  and  _364
REMARK  149  A    between atoms: _364  and  _365
REMARK  150  A    between atoms: _364  and  _367
REMARK  151  A    between atoms: _367  and  _368
REMARK  152  A    between atoms: _371  and  _373
REMARK  153  A    between atoms: _373  and  _374
REMARK  154  A    between atoms: _376  and  _378
REMARK  155  A    between atoms: _378  and  _379
REMARK  156  A    between atoms: _382  and  _384
REMARK  157  A    between atoms: _384  and  _385
REMARK  158  A    between atoms: _384  and  _387
REMARK  159  A    between atoms: _387  and  _388
REMARK  160  A    between atoms: _391  and  _393
REMARK  161  A    between atoms: _393  and  _394
REMARK  162  A    between atoms: _393  and  _396
REMARK  163  A    between atoms: _396  and  _397
REMARK  164  A    between atoms: _400  and  _402
REMARK  165  A    between atoms: _402  and  _403
REMARK  166  A    between atoms: _402  and  _405
REMARK  167  A    between atoms: _405  and  _406
REMARK  168  A    between atoms: _409  and  _411
REMARK  169  A    between atoms: _411  and  _412
REMARK  170  A    between atoms: _411  and  _414
REMARK  171  A    between atoms: _417  and  _419
REMARK  172  A    between atoms: _419  and  _420
REMARK  173  A    between atoms: _419  and  _422
REMARK  174  A    between atoms: _422  and  _423
REMARK  175  A    between atoms: _426  and  _428
REMARK  176  A    between atoms: _428  and  _429
REMARK  177  A    between atoms: _428  and  _431
REMARK  178  A    between atoms: _431  and  _432
REMARK  179  A    between atoms: _432  and  _433
REMARK  180  A    between atoms: _433  and  _434
REMARK  181  A    between atoms: _434  and  _435
REMARK  182  A    between atoms: _439  and  _441
REMARK  183  A    between atoms: _441  and  _442
REMARK  184  A    between atoms: _441  and  _444
REMARK  185  A    between atoms: _444  and  _445
REMARK  186  A    between atoms: _445  and  _446
REMARK  187  A    between atoms: _448  and  _450
REMARK  188  A    between atoms: _450  and  _451
REMARK  189  A    between atoms: _450  and  _453
REMARK  190  A    between atoms: _453  and  _454
REMARK  191  A    between atoms: _457  and  _459
REMARK  192  A    between atoms: _459  and  _460
REMARK  193  A    between atoms: _462  and  _464
REMARK  194  A    between atoms: _464  and  _465
REMARK  195  A    between atoms: _467  and  _469
REMARK  196  A    between atoms: _469  and  _470
REMARK  197  A    between atoms: _469  and  _472
REMARK  198  A    between atoms: _472  and  _473
REMARK  199  A    between atoms: _476  and  _478
REMARK  200  A    between atoms: _478  and  _479
REMARK  201  A    between atoms: _481  and  _483
REMARK  202  A    between atoms: _483  and  _484
REMARK  203  A    between atoms: _486  and  _488
REMARK  204  A    between atoms: _488  and  _489
REMARK  205  A    between atoms: _488  and  _491
REMARK  206  A    between atoms: _491  and  _492
REMARK  207  A    between atoms: _498  and  _500
REMARK  208  A    between atoms: _500  and  _501
REMARK  209  A    between atoms: _500  and  _503
REMARK  210  A    between atoms: _503  and  _504
REMARK  211  A    between atoms: _507  and  _509
REMARK  212  A    between atoms: _509  and  _510
REMARK  213  A    between atoms: _509  and  _512
REMARK  214  A    between atoms: _515  and  _517
REMARK  215  A    between atoms: _517  and  _518
REMARK  216  A    between atoms: _517  and  _520
REMARK  217  A    between atoms: _520  and  _521
REMARK  218  A    between atoms: _525  and  _526
REMARK  219  A    between atoms: _531  and  _533
REMARK  220  A    between atoms: _533  and  _534
REMARK  221  A    between atoms: _533  and  _536
REMARK  222  A    between atoms: _536  and  _537
REMARK  223  A    between atoms: _541  and  _542
REMARK  224  A    between atoms: _547  and  _549
REMARK  225  A    between atoms: _549  and  _550
REMARK  226  A    between atoms: _549  and  _552
REMARK  227  A    between atoms: _555  and  _557
REMARK  228  A    between atoms: _557  and  _558
REMARK  229  A    between atoms: _557  and  _560
REMARK  230  A    between atoms: _560  and  _561
REMARK  231  A    between atoms: _566  and  _568
REMARK  232  A    between atoms: _568  and  _569
REMARK  233  A    between atoms: _568  and  _571
REMARK  234  A    between atoms: _571  and  _572
REMARK  235  A    between atoms: _575  and  _577
REMARK  236  A    between atoms: _577  and  _578
REMARK  237  A    between atoms: _577  and  _580
REMARK  238  A    between atoms: _580  and  _581
REMARK  239  A    between atoms: _584  and  _586
REMARK  240  A    between atoms: _586  and  _587
REMARK  241  A    between atoms: _589  and  _591
REMARK  242  A    between atoms: _591  and  _592
REMARK  243  A    between atoms: _591  and  _594
REMARK  244  A    between atoms: _594  and  _595
REMARK  245  A    between atoms: _595  and  _596
REMARK  246  A    between atoms: _596  and  _597
REMARK  247  A    between atoms: _606  and  _608
REMARK  248  A    between atoms: _608  and  _609
REMARK  249  A    between atoms: _608  and  _611
REMARK  250  A    between atoms: _611  and  _612
REMARK                            x       y       z     vdW  Elec       q    Type
REMARK                         _______ _______ _______ _____ _____    ______ ____
ROOT
ATOM      1  C   GLY A   5      12.267  18.335   9.137  0.00  0.00    +0.243 C 
ATOM      2  O   GLY A   5      12.334  17.595  10.124  0.00  0.00    -0.273 OA
ATOM      3  N   ILE A   6      11.650  19.504   9.161  0.00  0.00    -0.297 N 
ATOM      4  H   ILE A   6      11.580  20.062   8.286  0.00  0.00    +0.150 HD
ENDROOT
BRANCH   3   5
ATOM      5  CA  ILE A   6      11.069  20.022  10.385  0.00  0.00    +0.149 C 
BRANCH   5   6
ATOM      6  C   ILE A   6       9.977  19.131  10.979  0.00  0.00    +0.241 C 
ATOM      7  O   ILE A   6       9.816  19.086  12.197  0.00  0.00    -0.273 OA
ATOM      8  N   GLY A   7       9.242  18.411  10.134  0.00  0.00    -0.295 N 
ATOM      9  H   GLY A   7       9.429  18.457   9.112  0.00  0.00    +0.150 HD
BRANCH   8  10
ATOM     10  CA  GLY A   7       8.176  17.560  10.642  0.00  0.00    +0.176 C 
BRANCH  10  11
ATOM     11  C   GLY A   7       8.488  16.077  10.770  0.00  0.00    +0.243 C 
ATOM     12  O   GLY A   7       7.645  15.295  11.207  0.00  0.00    -0.273 OA
ATOM     13  N   GLY A   8       9.699  15.684  10.397  0.00  0.00    -0.295 N 
ATOM     14  H   GLY A   8      10.385  16.382  10.045  0.00  0.00    +0.150 HD
BRANCH  13  15
ATOM     15  CA  GLY A   8      10.068  14.284  10.479  0.00  0.00    +0.176 C 
BRANCH  15  16
ATOM     16  C   GLY A   8      10.801  13.849   9.225  0.00  0.00    +0.243 C 
ATOM     17  N   PHE A   9      10.758  12.558   8.911  0.00  0.00    -0.297 N 
ATOM     18  H   PHE A   9      10.219  11.905   9.514  0.00  0.00    +0.150 HD
ATOM     19  O   GLY A   8      11.385  14.679   8.540  0.00  0.00    -0.273 OA
BRANCH  17  20
ATOM     20  CA  PHE A   9      11.453  12.039   7.736  0.00  0.00    +0.153 C 
BRANCH  20  21
ATOM     21  C   PHE A   9      10.535  11.513   6.643  0.00  0.00    +0.241 C 
ATOM     22  O   PHE A   9       9.395  11.126   6.891  0.00  0.00    -0.273 OA
ATOM     23  N   ILE A  10      11.045  11.515   5.419  0.00  0.00    -0.298 N 
ATOM     24  H   ILE A  10      11.994  11.912   5.263  0.00  0.00    +0.150 HD
BRANCH  23  25
ATOM     25  CA  ILE A  10      10.307  10.975   4.294  0.00  0.00    +0.137 C 
BRANCH  25  26
ATOM     26  C   ILE A  10      11.316  10.157   3.510  0.00  0.00    +0.227 C 
ATOM     27  O   ILE A  10      12.519  10.432   3.555  0.00  0.00    -0.286 OA
ENDBRANCH  25  26
BRANCH  25  28
ATOM     28  CB  ILE A  10       9.698  12.075   3.380  0.00  0.00    +0.026 C 
ATOM     29  CG2 ILE A  10       8.722  12.936   4.179  0.00  0.00    +0.002 C 
BRANCH  28  30
ATOM     30  CG1 ILE A  10      10.803  12.930   2.762  0.00  0.00    +0.002 C 
ATOM     31  CD1 ILE A  10      10.297  13.913   1.727  0.00  0.00    +0.000 C 
ENDBRANCH  28  30
ENDBRANCH  25  28
ENDBRANCH  23  25
ENDBRANCH  20  21
BRANCH  20  32
ATOM     32  CB  PHE A   9      12.400  10.901   8.133  0.00  0.00    +0.055 C 
BRANCH  32  33
ATOM     33  CG  PHE A   9      13.471  11.303   9.101  0.00  0.00    -0.020 A 
ATOM     34  CD2 PHE A   9      13.151  11.672  10.404  0.00  0.00    -0.004 A 
ATOM     35  CE2 PHE A   9      14.146  12.031  11.308  0.00  0.00    -0.000 A 
ATOM     36  CZ  PHE A   9      15.477  12.023  10.910  0.00  0.00    -0.000 A 
ATOM     37  CE1 PHE A   9      15.809  11.656   9.611  0.00  0.00    -0.000 A 
ATOM     38  CD1 PHE A   9      14.806  11.299   8.715  0.00  0.00    -0.004 A 
ENDBRANCH  32  33
ENDBRANCH  20  32
ENDBRANCH  17  20
ENDBRANCH  15  16
ENDBRANCH  13  15
ENDBRANCH  10  11
ENDBRANCH   8  10
ENDBRANCH   5   6
BRANCH   5  39
ATOM     39  CB  ILE A   6      10.527  21.457  10.156  0.00  0.00    +0.027 C 
ATOM     40  CG2 ILE A   6       9.198  21.408   9.427  0.00  0.00    +0.002 C 
BRANCH  39  41
ATOM     41  CG1 ILE A   6      10.383  22.180  11.494  0.00  0.00    +0.002 C 
ATOM     42  CD1 ILE A   6      10.027  23.652  11.356  0.00  0.00    +0.000 C 
ENDBRANCH  39  41
ENDBRANCH   5  39
ENDBRANCH   3   5
BRANCH   1  43
ATOM     43  CA  GLY A   5      12.860  17.923   7.805  0.00  0.00    +0.176 C 
BRANCH  43  45
ATOM     44  C   GLY A   4      14.415  16.081   7.660  0.00  0.00    +0.243 C 
ATOM     45  N   GLY A   5      13.174  16.512   7.846  0.00  0.00    -0.295 N 
ATOM     46  H   GLY A   5      12.415  15.824   8.024  0.00  0.00    +0.150 HD
ATOM     47  O   GLY A   4      15.361  16.824   7.411  0.00  0.00    -0.273 OA
BRANCH  44  48
ATOM     48  CA  GLY A   4      14.604  14.587   7.755  0.00  0.00    +0.176 C 
BRANCH  48  50
ATOM     49  C   ILE A   3      14.839  13.377   5.690  0.00  0.00    +0.241 C 
ATOM     50  N   GLY A   4      15.405  14.064   6.671  0.00  0.00    -0.295 N 
ATOM     51  H   GLY A   4      16.432  14.228   6.661  0.00  0.00    +0.150 HD
ATOM     52  O   ILE A   3      13.632  13.143   5.633  0.00  0.00    -0.273 OA
BRANCH  49  53
ATOM     53  CA  ILE A   3      15.783  12.861   4.626  0.00  0.00    +0.149 C 
BRANCH  53  56
ATOM     54  C   MET A   2      16.332  10.524   4.440  0.00  0.00    +0.241 C 
ATOM     55  O   MET A   2      17.511  10.745   4.716  0.00  0.00    -0.273 OA
ATOM     56  N   ILE A   3      15.423  11.486   4.336  0.00  0.00    -0.297 N 
ATOM     57  H   ILE A   3      14.452  11.254   4.046  0.00  0.00    +0.150 HD
BRANCH  54  58
ATOM     58  CA  MET A   2      15.869   9.109   4.164  0.00  0.00    +0.149 C 
BRANCH  58  60
ATOM     59  C   LYS A   1      16.423   8.213   1.966  0.00  0.00    +0.238 C 
ATOM     60  N   MET A   2      16.796   8.577   3.184  0.00  0.00    -0.297 N 
ATOM     61  H   MET A   2      17.797   8.477   3.449  0.00  0.00    +0.150 HD
ATOM     62  O   LYS A   1      15.260   8.251   1.567  0.00  0.00    -0.274 OA
BRANCH  59  63
ATOM     63  CA  LYS A   1      17.536   7.705   1.080  0.00  0.00    +0.145 C 
BRANCH  63  64
ATOM     64  N   LYS A   1      17.001   6.720   0.166  0.00  0.00    -0.238 NA
ATOM     65  H   LYS A   1      16.004   6.776  -0.125  0.00  0.00    +0.142 HD
ENDBRANCH  63  64
BRANCH  63  66
ATOM     66  CB  LYS A   1      18.191   8.881   0.346  0.00  0.00    +0.026 C 
BRANCH  66  67
ATOM     67  CG  LYS A   1      18.877   9.831   1.323  0.00  0.00    -0.000 C 
BRANCH  67  68
ATOM     68  CD  LYS A   1      19.766  10.862   0.665  0.00  0.00    -0.024 C 
BRANCH  68  69
ATOM     69  CE  LYS A   1      20.537  11.631   1.733  0.00  0.00    -0.086 C 
BRANCH  69  70
ATOM     70  NZ  LYS A   1      21.479  12.623   1.156  0.00  0.00    +0.380 N 
ATOM     71  HZ1 LYS A   1      21.976  13.116   1.925  0.00  0.00    -0.089 HD
ATOM     72  HZ2 LYS A   1      20.948  13.313   0.586  0.00  0.00    -0.089 HD
ATOM     73  HZ3 LYS A   1      22.171  12.133   0.553  0.00  0.00    -0.089 HD
ENDBRANCH  69  70
ENDBRANCH  68  69
ENDBRANCH  67  68
ENDBRANCH  66  67
ENDBRANCH  63  66
ENDBRANCH  59  63
ENDBRANCH  58  60
BRANCH  58  74
ATOM     74  CB  MET A   2      15.947   8.307   5.463  0.00  0.00    +0.041 C 
BRANCH  74  75
ATOM     75  CG  MET A   2      15.405   6.904   5.367  0.00  0.00    +0.060 C 
BRANCH  75  76
ATOM     76  SD  MET A   2      13.622   6.936   5.263  0.00  0.00    -0.139 S 
ATOM     77  CE  MET A   2      13.205   7.164   7.000  0.00  0.00    +0.069 C 
ENDBRANCH  75  76
ENDBRANCH  74  75
ENDBRANCH  58  74
ENDBRANCH  54  58
ENDBRANCH  53  56
BRANCH  53  78
ATOM     78  CB  ILE A   3      15.714  13.766   3.376  0.00  0.00    +0.027 C 
ATOM     79  CG2 ILE A   3      16.840  13.389   2.408  0.00  0.00    +0.002 C 
BRANCH  78  80
ATOM     80  CG1 ILE A   3      14.346  13.651   2.707  0.00  0.00    +0.002 C 
ATOM     81  CD1 ILE A   3      14.161  14.614   1.540  0.00  0.00    +0.000 C 
ENDBRANCH  78  80
ENDBRANCH  53  78
ENDBRANCH  49  53
ENDBRANCH  48  50
ENDBRANCH  44  48
ENDBRANCH  43  45
ENDBRANCH   1  43
TORSDOF 36
REMARK  Name = ../refined-set-2016/1w5x/1w5x_pocket.pdb
REMARK  250 active torsions:
REMARK  status: ('A' for Active; 'I' for Inactive)
REMARK    1  A    between atoms: _1  and  _3
REMARK    2  A    between atoms: _3  and  _4
REMARK    3  A    between atoms: _3  and  _6
REMARK    4  A    between atoms: _6  and  _7
REMARK    5  A    between atoms: _7  and  _8
REMARK    6  A    between atoms: _8  and  _9
REMARK    7  A    between atoms: _18  and  _20
REMARK    8  A    between atoms: _20  and  _21
REMARK    9  A    between atoms: _20  and  _23
REMARK   10  A    between atoms: _23  and  _24
REMARK   11  A    between atoms: _27  and  _29
REMARK   12  A    between atoms: _29  and  _30
REMARK   13  A    between atoms: _29  and  _32
REMARK   14  A    between atoms: _32  and  _33
REMARK   15  A    between atoms: _36  and  _38
REMARK   16  A    between atoms: _38  and  _39
REMARK   17  A    between atoms: _38  and  _41
REMARK   18  A    between atoms: _41  and  _42
REMARK   19  A    between atoms: _45  and  _47
REMARK   20  A    between atoms: _47  and  _48
REMARK   21  A    between atoms: _47  and  _50
REMARK   22  A    between atoms: _50  and  _51
REMARK   23  A    between atoms: _54  and  _56
REMARK   24  A    between atoms: _56  and  _57
REMARK   25  A    between atoms: _56  and  _59
REMARK   26  A    between atoms: _59  and  _60
REMARK   27  A    between atoms: _63  and  _65
REMARK   28  A    between atoms: _65  and  _66
REMARK   29  A    between atoms: _68  and  _70
REMARK   30  A    between atoms: _70  and  _71
REMARK   31  A    between atoms: _74  and  _76
REMARK   32  A    between atoms: _76  and  _77
REMARK   33  A    between atoms: _76  and  _79
REMARK   34  A    between atoms: _79  and  _80
REMARK   35  A    between atoms: _83  and  _85
REMARK   36  A    between atoms: _85  and  _86
REMARK   37  A    between atoms: _85  and  _88
REMARK   38  A    between atoms: _88  and  _89
REMARK   39  A    between atoms: _92  and  _94
REMARK   40  A    between atoms: _94  and  _95
REMARK   41  A    between atoms: _94  and  _97
REMARK   42  A    between atoms: _97  and  _98
REMARK   43  A    between atoms: _101  and  _103
REMARK   44  A    between atoms: _103  and  _104
REMARK   45  A    between atoms: _103  and  _106
REMARK   46  A    between atoms: _109  and  _111
REMARK   47  A    between atoms: _111  and  _112
REMARK   48  A    between atoms: _111  and  _114
REMARK   49  A    between atoms: _114  and  _115
REMARK   50  A    between atoms: _118  and  _120
REMARK   51  A    between atoms: _120  and  _121
REMARK   52  A    between atoms: _120  and  _123
REMARK   53  A    between atoms: _123  and  _124
REMARK   54  A    between atoms: _124  and  _125
REMARK   55  A    between atoms: _125  and  _126
REMARK   56  A    between atoms: _126  and  _127
REMARK   57  A    between atoms: _131  and  _133
REMARK   58  A    between atoms: _133  and  _134
REMARK   59  A    between atoms: _133  and  _136
REMARK   60  A    between atoms: _136  and  _137
REMARK   61  A    between atoms: _137  and  _138
REMARK   62  A    between atoms: _140  and  _142
REMARK   63  A    between atoms: _142  and  _143
REMARK   64  A    between atoms: _142  and  _145
REMARK   65  A    between atoms: _145  and  _146
REMARK   66  A    between atoms: _149  and  _151
REMARK   67  A    between atoms: _151  and  _152
REMARK   68  A    between atoms: _154  and  _156
REMARK   69  A    between atoms: _156  and  _157
REMARK   70  A    between atoms: _159  and  _161
REMARK   71  A    between atoms: _161  and  _162
REMARK   72  A    between atoms: _161  and  _164
REMARK   73  A    between atoms: _164  and  _165
REMARK   74  A    between atoms: _168  and  _170
REMARK   75  A    between atoms: _170  and  _171
REMARK   76  A    between atoms: _173  and  _175
REMARK   77  A    between atoms: _175  and  _176
REMARK   78  A    between atoms: _178  and  _180
REMARK   79  A    between atoms: _180  and  _181
REMARK   80  A    between atoms: _180  and  _183
REMARK   81  A    between atoms: _183  and  _184
REMARK   82  A    between atoms: _190  and  _192
REMARK   83  A    between atoms: _192  and  _193
REMARK   84  A    between atoms: _192  and  _195
REMARK   85  A    between atoms: _195  and  _196
REMARK   86  A    between atoms: _199  and  _201
REMARK   87  A    between atoms: _201  and  _202
REMARK   88  A    between atoms: _201  and  _204
REMARK   89  A    between atoms: _207  and  _209
REMARK   90  A    between atoms: _209  and  _210
REMARK   91  A    between atoms: _209  and  _212
REMARK   92  A    between atoms: _212  and  _213
REMARK   93  A    between atoms: _217  and  _218
REMARK   94  A    between atoms: _223  and  _225
REMARK   95  A    between atoms: _225  and  _226
REMARK   96  A    between atoms: _225  and  _228
REMARK   97  A    between atoms: _228  and  _229
REMARK   98  A    between atoms: _233  and  _234
REMARK   99  A    between atoms: _239  and  _241
REMARK  100  A    between atoms: _241  and  _242
REMARK  101  A    between atoms: _241  and  _244
REMARK  102  A    between atoms: _247  and  _249
REMARK  103  A    between atoms: _249  and  _250
REMARK  104  A    between atoms: _249  and  _252
REMARK  105  A    between atoms: _252  and  _253
REMARK  106  A    between atoms: _258  and  _260
REMARK  107  A    between atoms: _260  and  _261
REMARK  108  A    between atoms: _260  and  _263
REMARK  109  A    between atoms: _263  and  _264
REMARK  110  A    between atoms: _267  and  _269
REMARK  111  A    between atoms: _269  and  _270
REMARK  112  A    between atoms: _269  and  _272
REMARK  113  A    between atoms: _272  and  _273
REMARK  114  A    between atoms: _276  and  _278
REMARK  115  A    between atoms: _278  and  _279
REMARK  116  A    between atoms: _281  and  _283
REMARK  117  A    between atoms: _283  and  _284
REMARK  118  A    between atoms: _283  and  _286
REMARK  119  A    between atoms: _286  and  _287
REMARK  120  A    between atoms: _287  and  _288
REMARK  121  A    between atoms: _288  and  _289
REMARK  122  A    between atoms: _298  and  _300
REMARK  123  A    between atoms: _300  and  _301
REMARK  124  A    between atoms: _300  and  _303
REMARK  125  A    between atoms: _303  and  _304
REMARK  126  A    between atoms: _309  and  _311
REMARK  127  A    between atoms: _311  and  _312
REMARK  128  A    between atoms: _311  and  _314
REMARK  129  A    between atoms: _314  and  _315
REMARK  130  A    between atoms: _315  and  _316
REMARK  131  A    between atoms: _316  and  _317
REMARK  132  A    between atoms: _326  and  _328
REMARK  133  A    between atoms: _328  and  _329
REMARK  134  A    between atoms: _328  and  _331
REMARK  135  A    between atoms: _331  and  _332
REMARK  136  A    between atoms: _335  and  _337
REMARK  137  A    between atoms: _337  and  _338
REMARK  138  A    between atoms: _337  and  _340
REMARK  139  A    between atoms: _340  and  _341
REMARK  140  A    between atoms: _344  and  _346
REMARK  141  A    between atoms: _346  and  _347
REMARK  142  A    between atoms: _346  and  _349
REMARK  143  A    between atoms: _349  and  _350
REMARK  144  A    between atoms: _353  and  _355
REMARK  145  A    between atoms: _355  and  _356
REMARK  146  A    between atoms: _355  and  _358
REMARK  147  A    between atoms: _358  and  _359
REMARK  148  A    between atoms: _362  and  _364
REMARK  149  A    between atoms: _364  and  _365
REMARK  150  A    between atoms: _364  and  _367
REMARK  151  A    between atoms: _367  and  _368
REMARK  152  A    between atoms: _371  and  _373
REMARK  153  A    between atoms: _373  and  _374
REMARK  154  A    between atoms: _376  and  _378
REMARK  155  A    between atoms: _378  and  _379
REMARK  156  A    between atoms: _382  and  _384
REMARK  157  A    between atoms: _384  and  _385
REMARK  158  A    between atoms: _384  and  _387
REMARK  159  A    between atoms: _387  and  _388
REMARK  160  A    between atoms: _391  and  _393
REMARK  161  A    between atoms: _393  and  _394
REMARK  162  A    between atoms: _393  and  _396
REMARK  163  A    between atoms: _396  and  _397
REMARK  164  A    between atoms: _400  and  _402
REMARK  165  A    between atoms: _402  and  _403
REMARK  166  A    between atoms: _402  and  _405
REMARK  167  A    between atoms: _405  and  _406
REMARK  168  A    between atoms: _409  and  _411
REMARK  169  A    between atoms: _411  and  _412
REMARK  170  A    between atoms: _411  and  _414
REMARK  171  A    between atoms: _417  and  _419
REMARK  172  A    between atoms: _419  and  _420
REMARK  173  A    between atoms: _419  and  _422
REMARK  174  A    between atoms: _422  and  _423
REMARK  175  A    between atoms: _426  and  _428
REMARK  176  A    between atoms: _428  and  _429
REMARK  177  A    between atoms: _428  and  _431
REMARK  178  A    between atoms: _431  and  _432
REMARK  179  A    between atoms: _432  and  _433
REMARK  180  A    between atoms: _433  and  _434
REMARK  181  A    between atoms: _434  and  _435
REMARK  182  A    between atoms: _439  and  _441
REMARK  183  A    between atoms: _441  and  _442
REMARK  184  A    between atoms: _441  and  _444
REMARK  185  A    between atoms: _444  and  _445
REMARK  186  A    between atoms: _445  and  _446
REMARK  187  A    between atoms: _448  and  _450
REMARK  188  A    between atoms: _450  and  _451
REMARK  189  A    between atoms: _450  and  _453
REMARK  190  A    between atoms: _453  and  _454
REMARK  191  A    between atoms: _457  and  _459
REMARK  192  A    between atoms: _459  and  _460
REMARK  193  A    between atoms: _462  and  _464
REMARK  194  A    between atoms: _464  and  _465
REMARK  195  A    between atoms: _467  and  _469
REMARK  196  A    between atoms: _469  and  _470
REMARK  197  A    between atoms: _469  and  _472
REMARK  198  A    between atoms: _472  and  _473
REMARK  199  A    between atoms: _476  and  _478
REMARK  200  A    between atoms: _478  and  _479
REMARK  201  A    between atoms: _481  and  _483
REMARK  202  A    between atoms: _483  and  _484
REMARK  203  A    between atoms: _486  and  _488
REMARK  204  A    between atoms: _488  and  _489
REMARK  205  A    between atoms: _488  and  _491
REMARK  206  A    between atoms: _491  and  _492
REMARK  207  A    between atoms: _498  and  _500
REMARK  208  A    between atoms: _500  and  _501
REMARK  209  A    between atoms: _500  and  _503
REMARK  210  A    between atoms: _503  and  _504
REMARK  211  A    between atoms: _507  and  _509
REMARK  212  A    between atoms: _509  and  _510
REMARK  213  A    between atoms: _509  and  _512
REMARK  214  A    between atoms: _515  and  _517
REMARK  215  A    between atoms: _517  and  _518
REMARK  216  A    between atoms: _517  and  _520
REMARK  217  A    between atoms: _520  and  _521
REMARK  218  A    between atoms: _525  and  _526
REMARK  219  A    between atoms: _531  and  _533
REMARK  220  A    between atoms: _533  and  _534
REMARK  221  A    between atoms: _533  and  _536
REMARK  222  A    between atoms: _536  and  _537
REMARK  223  A    between atoms: _541  and  _542
REMARK  224  A    between atoms: _547  and  _549
REMARK  225  A    between atoms: _549  and  _550
REMARK  226  A    between atoms: _549  and  _552
REMARK  227  A    between atoms: _555  and  _557
REMARK  228  A    between atoms: _557  and  _558
REMARK  229  A    between atoms: _557  and  _560
REMARK  230  A    between atoms: _560  and  _561
REMARK  231  A    between atoms: _566  and  _568
REMARK  232  A    between atoms: _568  and  _569
REMARK  233  A    between atoms: _568  and  _571
REMARK  234  A    between atoms: _571  and  _572
REMARK  235  A    between atoms: _575  and  _577
REMARK  236  A    between atoms: _577  and  _578
REMARK  237  A    between atoms: _577  and  _580
REMARK  238  A    between atoms: _580  and  _581
REMARK  239  A    between atoms: _584  and  _586
REMARK  240  A    between atoms: _586  and  _587
REMARK  241  A    between atoms: _589  and  _591
REMARK  242  A    between atoms: _591  and  _592
REMARK  243  A    between atoms: _591  and  _594
REMARK  244  A    between atoms: _594  and  _595
REMARK  245  A    between atoms: _595  and  _596
REMARK  246  A    between atoms: _596  and  _597
REMARK  247  A    between atoms: _606  and  _608
REMARK  248  A    between atoms: _608  and  _609
REMARK  249  A    between atoms: _608  and  _611
REMARK  250  A    between atoms: _611  and  _612
REMARK                            x       y       z     vdW  Elec       q    Type
REMARK                         _______ _______ _______ _____ _____    ______ ____
ROOT
ATOM      1  CA  VAL A   1      12.969   9.486  -1.319  0.00  0.00    +0.133 C 
ENDROOT
BRANCH   1   2
ATOM      2  CB  VAL A   1      13.585  10.904  -1.312  0.00  0.00    +0.023 C 
ATOM      3  CG2 VAL A   1      14.930  10.885  -0.597  0.00  0.00    +0.002 C 
ATOM      4  CG1 VAL A   1      12.635  11.877  -0.626  0.00  0.00    +0.002 C 
ENDBRANCH   1   2
BRANCH   1   5
ATOM      5  N   VAL A   1      12.869   8.952   0.023  0.00  0.00    -0.239 NA
ATOM      6  H   VAL A   1      13.727   8.634   0.517  0.00  0.00    +0.142 HD
ENDBRANCH   1   5
BRANCH   1   7
ATOM      7  C   VAL A   1      13.832   8.574  -2.166  0.00  0.00    +0.224 C 
ATOM      8  O   VAL A   1      14.530   7.697  -1.646  0.00  0.00    -0.287 OA
ENDBRANCH   1   7
TORSDOF 3
REMARK  Name = ../refined-set-2016/1w5x/1w5x_pocket.pdb
REMARK  250 active torsions:
REMARK  status: ('A' for Active; 'I' for Inactive)
REMARK    1  A    between atoms: _1  and  _3
REMARK    2  A    between atoms: _3  and  _4
REMARK    3  A    between atoms: _3  and  _6
REMARK    4  A    between atoms: _6  and  _7
REMARK    5  A    between atoms: _7  and  _8
REMARK    6  A    between atoms: _8  and  _9
REMARK    7  A    between atoms: _18  and  _20
REMARK    8  A    between atoms: _20  and  _21
REMARK    9  A    between atoms: _20  and  _23
REMARK   10  A    between atoms: _23  and  _24
REMARK   11  A    between atoms: _27  and  _29
REMARK   12  A    between atoms: _29  and  _30
REMARK   13  A    between atoms: _29  and  _32
REMARK   14  A    between atoms: _32  and  _33
REMARK   15  A    between atoms: _36  and  _38
REMARK   16  A    between atoms: _38  and  _39
REMARK   17  A    between atoms: _38  and  _41
REMARK   18  A    between atoms: _41  and  _42
REMARK   19  A    between atoms: _45  and  _47
REMARK   20  A    between atoms: _47  and  _48
REMARK   21  A    between atoms: _47  and  _50
REMARK   22  A    between atoms: _50  and  _51
REMARK   23  A    between atoms: _54  and  _56
REMARK   24  A    between atoms: _56  and  _57
REMARK   25  A    between atoms: _56  and  _59
REMARK   26  A    between atoms: _59  and  _60
REMARK   27  A    between atoms: _63  and  _65
REMARK   28  A    between atoms: _65  and  _66
REMARK   29  A    between atoms: _68  and  _70
REMARK   30  A    between atoms: _70  and  _71
REMARK   31  A    between atoms: _74  and  _76
REMARK   32  A    between atoms: _76  and  _77
REMARK   33  A    between atoms: _76  and  _79
REMARK   34  A    between atoms: _79  and  _80
REMARK   35  A    between atoms: _83  and  _85
REMARK   36  A    between atoms: _85  and  _86
REMARK   37  A    between atoms: _85  and  _88
REMARK   38  A    between atoms: _88  and  _89
REMARK   39  A    between atoms: _92  and  _94
REMARK   40  A    between atoms: _94  and  _95
REMARK   41  A    between atoms: _94  and  _97
REMARK   42  A    between atoms: _97  and  _98
REMARK   43  A    between atoms: _101  and  _103
REMARK   44  A    between atoms: _103  and  _104
REMARK   45  A    between atoms: _103  and  _106
REMARK   46  A    between atoms: _109  and  _111
REMARK   47  A    between atoms: _111  and  _112
REMARK   48  A    between atoms: _111  and  _114
REMARK   49  A    between atoms: _114  and  _115
REMARK   50  A    between atoms: _118  and  _120
REMARK   51  A    between atoms: _120  and  _121
REMARK   52  A    between atoms: _120  and  _123
REMARK   53  A    between atoms: _123  and  _124
REMARK   54  A    between atoms: _124  and  _125
REMARK   55  A    between atoms: _125  and  _126
REMARK   56  A    between atoms: _126  and  _127
REMARK   57  A    between atoms: _131  and  _133
REMARK   58  A    between atoms: _133  and  _134
REMARK   59  A    between atoms: _133  and  _136
REMARK   60  A    between atoms: _136  and  _137
REMARK   61  A    between atoms: _137  and  _138
REMARK   62  A    between atoms: _140  and  _142
REMARK   63  A    between atoms: _142  and  _143
REMARK   64  A    between atoms: _142  and  _145
REMARK   65  A    between atoms: _145  and  _146
REMARK   66  A    between atoms: _149  and  _151
REMARK   67  A    between atoms: _151  and  _152
REMARK   68  A    between atoms: _154  and  _156
REMARK   69  A    between atoms: _156  and  _157
REMARK   70  A    between atoms: _159  and  _161
REMARK   71  A    between atoms: _161  and  _162
REMARK   72  A    between atoms: _161  and  _164
REMARK   73  A    between atoms: _164  and  _165
REMARK   74  A    between atoms: _168  and  _170
REMARK   75  A    between atoms: _170  and  _171
REMARK   76  A    between atoms: _173  and  _175
REMARK   77  A    between atoms: _175  and  _176
REMARK   78  A    between atoms: _178  and  _180
REMARK   79  A    between atoms: _180  and  _181
REMARK   80  A    between atoms: _180  and  _183
REMARK   81  A    between atoms: _183  and  _184
REMARK   82  A    between atoms: _190  and  _192
REMARK   83  A    between atoms: _192  and  _193
REMARK   84  A    between atoms: _192  and  _195
REMARK   85  A    between atoms: _195  and  _196
REMARK   86  A    between atoms: _199  and  _201
REMARK   87  A    between atoms: _201  and  _202
REMARK   88  A    between atoms: _201  and  _204
REMARK   89  A    between atoms: _207  and  _209
REMARK   90  A    between atoms: _209  and  _210
REMARK   91  A    between atoms: _209  and  _212
REMARK   92  A    between atoms: _212  and  _213
REMARK   93  A    between atoms: _217  and  _218
REMARK   94  A    between atoms: _223  and  _225
REMARK   95  A    between atoms: _225  and  _226
REMARK   96  A    between atoms: _225  and  _228
REMARK   97  A    between atoms: _228  and  _229
REMARK   98  A    between atoms: _233  and  _234
REMARK   99  A    between atoms: _239  and  _241
REMARK  100  A    between atoms: _241  and  _242
REMARK  101  A    between atoms: _241  and  _244
REMARK  102  A    between atoms: _247  and  _249
REMARK  103  A    between atoms: _249  and  _250
REMARK  104  A    between atoms: _249  and  _252
REMARK  105  A    between atoms: _252  and  _253
REMARK  106  A    between atoms: _258  and  _260
REMARK  107  A    between atoms: _260  and  _261
REMARK  108  A    between atoms: _260  and  _263
REMARK  109  A    between atoms: _263  and  _264
REMARK  110  A    between atoms: _267  and  _269
REMARK  111  A    between atoms: _269  and  _270
REMARK  112  A    between atoms: _269  and  _272
REMARK  113  A    between atoms: _272  and  _273
REMARK  114  A    between atoms: _276  and  _278
REMARK  115  A    between atoms: _278  and  _279
REMARK  116  A    between atoms: _281  and  _283
REMARK  117  A    between atoms: _283  and  _284
REMARK  118  A    between atoms: _283  and  _286
REMARK  119  A    between atoms: _286  and  _287
REMARK  120  A    between atoms: _287  and  _288
REMARK  121  A    between atoms: _288  and  _289
REMARK  122  A    between atoms: _298  and  _300
REMARK  123  A    between atoms: _300  and  _301
REMARK  124  A    between atoms: _300  and  _303
REMARK  125  A    between atoms: _303  and  _304
REMARK  126  A    between atoms: _309  and  _311
REMARK  127  A    between atoms: _311  and  _312
REMARK  128  A    between atoms: _311  and  _314
REMARK  129  A    between atoms: _314  and  _315
REMARK  130  A    between atoms: _315  and  _316
REMARK  131  A    between atoms: _316  and  _317
REMARK  132  A    between atoms: _326  and  _328
REMARK  133  A    between atoms: _328  and  _329
REMARK  134  A    between atoms: _328  and  _331
REMARK  135  A    between atoms: _331  and  _332
REMARK  136  A    between atoms: _335  and  _337
REMARK  137  A    between atoms: _337  and  _338
REMARK  138  A    between atoms: _337  and  _340
REMARK  139  A    between atoms: _340  and  _341
REMARK  140  A    between atoms: _344  and  _346
REMARK  141  A    between atoms: _346  and  _347
REMARK  142  A    between atoms: _346  and  _349
REMARK  143  A    between atoms: _349  and  _350
REMARK  144  A    between atoms: _353  and  _355
REMARK  145  A    between atoms: _355  and  _356
REMARK  146  A    between atoms: _355  and  _358
REMARK  147  A    between atoms: _358  and  _359
REMARK  148  A    between atoms: _362  and  _364
REMARK  149  A    between atoms: _364  and  _365
REMARK  150  A    between atoms: _364  and  _367
REMARK  151  A    between atoms: _367  and  _368
REMARK  152  A    between atoms: _371  and  _373
REMARK  153  A    between atoms: _373  and  _374
REMARK  154  A    between atoms: _376  and  _378
REMARK  155  A    between atoms: _378  and  _379
REMARK  156  A    between atoms: _382  and  _384
REMARK  157  A    between atoms: _384  and  _385
REMARK  158  A    between atoms: _384  and  _387
REMARK  159  A    between atoms: _387  and  _388
REMARK  160  A    between atoms: _391  and  _393
REMARK  161  A    between atoms: _393  and  _394
REMARK  162  A    between atoms: _393  and  _396
REMARK  163  A    between atoms: _396  and  _397
REMARK  164  A    between atoms: _400  and  _402
REMARK  165  A    between atoms: _402  and  _403
REMARK  166  A    between atoms: _402  and  _405
REMARK  167  A    between atoms: _405  and  _406
REMARK  168  A    between atoms: _409  and  _411
REMARK  169  A    between atoms: _411  and  _412
REMARK  170  A    between atoms: _411  and  _414
REMARK  171  A    between atoms: _417  and  _419
REMARK  172  A    between atoms: _419  and  _420
REMARK  173  A    between atoms: _419  and  _422
REMARK  174  A    between atoms: _422  and  _423
REMARK  175  A    between atoms: _426  and  _428
REMARK  176  A    between atoms: _428  and  _429
REMARK  177  A    between atoms: _428  and  _431
REMARK  178  A    between atoms: _431  and  _432
REMARK  179  A    between atoms: _432  and  _433
REMARK  180  A    between atoms: _433  and  _434
REMARK  181  A    between atoms: _434  and  _435
REMARK  182  A    between atoms: _439  and  _441
REMARK  183  A    between atoms: _441  and  _442
REMARK  184  A    between atoms: _441  and  _444
REMARK  185  A    between atoms: _444  and  _445
REMARK  186  A    between atoms: _445  and  _446
REMARK  187  A    between atoms: _448  and  _450
REMARK  188  A    between atoms: _450  and  _451
REMARK  189  A    between atoms: _450  and  _453
REMARK  190  A    between atoms: _453  and  _454
REMARK  191  A    between atoms: _457  and  _459
REMARK  192  A    between atoms: _459  and  _460
REMARK  193  A    between atoms: _462  and  _464
REMARK  194  A    between atoms: _464  and  _465
REMARK  195  A    between atoms: _467  and  _469
REMARK  196  A    between atoms: _469  and  _470
REMARK  197  A    between atoms: _469  and  _472
REMARK  198  A    between atoms: _472  and  _473
REMARK  199  A    between atoms: _476  and  _478
REMARK  200  A    between atoms: _478  and  _479
REMARK  201  A    between atoms: _481  and  _483
REMARK  202  A    between atoms: _483  and  _484
REMARK  203  A    between atoms: _486  and  _488
REMARK  204  A    between atoms: _488  and  _489
REMARK  205  A    between atoms: _488  and  _491
REMARK  206  A    between atoms: _491  and  _492
REMARK  207  A    between atoms: _498  and  _500
REMARK  208  A    between atoms: _500  and  _501
REMARK  209  A    between atoms: _500  and  _503
REMARK  210  A    between atoms: _503  and  _504
REMARK  211  A    between atoms: _507  and  _509
REMARK  212  A    between atoms: _509  and  _510
REMARK  213  A    between atoms: _509  and  _512
REMARK  214  A    between atoms: _515  and  _517
REMARK  215  A    between atoms: _517  and  _518
REMARK  216  A    between atoms: _517  and  _520
REMARK  217  A    between atoms: _520  and  _521
REMARK  218  A    between atoms: _525  and  _526
REMARK  219  A    between atoms: _531  and  _533
REMARK  220  A    between atoms: _533  and  _534
REMARK  221  A    between atoms: _533  and  _536
REMARK  222  A    between atoms: _536  and  _537
REMARK  223  A    between atoms: _541  and  _542
REMARK  224  A    between atoms: _547  and  _549
REMARK  225  A    between atoms: _549  and  _550
REMARK  226  A    between atoms: _549  and  _552
REMARK  227  A    between atoms: _555  and  _557
REMARK  228  A    between atoms: _557  and  _558
REMARK  229  A    between atoms: _557  and  _560
REMARK  230  A    between atoms: _560  and  _561
REMARK  231  A    between atoms: _566  and  _568
REMARK  232  A    between atoms: _568  and  _569
REMARK  233  A    between atoms: _568  and  _571
REMARK  234  A    between atoms: _571  and  _572
REMARK  235  A    between atoms: _575  and  _577
REMARK  236  A    between atoms: _577  and  _578
REMARK  237  A    between atoms: _577  and  _580
REMARK  238  A    between atoms: _580  and  _581
REMARK  239  A    between atoms: _584  and  _586
REMARK  240  A    between atoms: _586  and  _587
REMARK  241  A    between atoms: _589  and  _591
REMARK  242  A    between atoms: _591  and  _592
REMARK  243  A    between atoms: _591  and  _594
REMARK  244  A    between atoms: _594  and  _595
REMARK  245  A    between atoms: _595  and  _596
REMARK  246  A    between atoms: _596  and  _597
REMARK  247  A    between atoms: _606  and  _608
REMARK  248  A    between atoms: _608  and  _609
REMARK  249  A    between atoms: _608  and  _611
REMARK  250  A    between atoms: _611  and  _612
REMARK                            x       y       z     vdW  Elec       q    Type
REMARK                         _______ _______ _______ _____ _____    ______ ____
ROOT
ATOM      1  CA  LEU A   1      16.110  13.222  -4.833  0.00  0.00    +0.133 C 
ENDROOT
BRANCH   1   2
ATOM      2  N   LEU A   1      16.970  14.136  -5.561  0.00  0.00    -0.239 NA
ATOM      3  H   LEU A   1      17.025  15.132  -5.268  0.00  0.00    +0.142 HD
ENDBRANCH   1   2
BRANCH   1   4
ATOM      4  C   LEU A   1      14.681  13.446  -5.304  0.00  0.00    +0.224 C 
ATOM      5  O   LEU A   1      14.303  14.560  -5.669  0.00  0.00    -0.287 OA
ENDBRANCH   1   4
BRANCH   1   6
ATOM      6  CB  LEU A   1      16.215  13.484  -3.334  0.00  0.00    +0.025 C 
BRANCH   6   7
ATOM      7  CG  LEU A   1      17.639  13.474  -2.775  0.00  0.00    +0.002 C 
ATOM      8  CD2 LEU A   1      17.603  13.819  -1.292  0.00  0.00    +0.000 C 
ATOM      9  CD1 LEU A   1      18.277  12.102  -3.003  0.00  0.00    +0.000 C 
ENDBRANCH   6   7
ENDBRANCH   1   6
TORSDOF 4
REMARK  Name = ../refined-set-2016/1w5x/1w5x_pocket.pdb
REMARK  250 active torsions:
REMARK  status: ('A' for Active; 'I' for Inactive)
REMARK    1  A    between atoms: _1  and  _3
REMARK    2  A    between atoms: _3  and  _4
REMARK    3  A    between atoms: _3  and  _6
REMARK    4  A    between atoms: _6  and  _7
REMARK    5  A    between atoms: _7  and  _8
REMARK    6  A    between atoms: _8  and  _9
REMARK    7  A    between atoms: _18  and  _20
REMARK    8  A    between atoms: _20  and  _21
REMARK    9  A    between atoms: _20  and  _23
REMARK   10  A    between atoms: _23  and  _24
REMARK   11  A    between atoms: _27  and  _29
REMARK   12  A    between atoms: _29  and  _30
REMARK   13  A    between atoms: _29  and  _32
REMARK   14  A    between atoms: _32  and  _33
REMARK   15  A    between atoms: _36  and  _38
REMARK   16  A    between atoms: _38  and  _39
REMARK   17  A    between atoms: _38  and  _41
REMARK   18  A    between atoms: _41  and  _42
REMARK   19  A    between atoms: _45  and  _47
REMARK   20  A    between atoms: _47  and  _48
REMARK   21  A    between atoms: _47  and  _50
REMARK   22  A    between atoms: _50  and  _51
REMARK   23  A    between atoms: _54  and  _56
REMARK   24  A    between atoms: _56  and  _57
REMARK   25  A    between atoms: _56  and  _59
REMARK   26  A    between atoms: _59  and  _60
REMARK   27  A    between atoms: _63  and  _65
REMARK   28  A    between atoms: _65  and  _66
REMARK   29  A    between atoms: _68  and  _70
REMARK   30  A    between atoms: _70  and  _71
REMARK   31  A    between atoms: _74  and  _76
REMARK   32  A    between atoms: _76  and  _77
REMARK   33  A    between atoms: _76  and  _79
REMARK   34  A    between atoms: _79  and  _80
REMARK   35  A    between atoms: _83  and  _85
REMARK   36  A    between atoms: _85  and  _86
REMARK   37  A    between atoms: _85  and  _88
REMARK   38  A    between atoms: _88  and  _89
REMARK   39  A    between atoms: _92  and  _94
REMARK   40  A    between atoms: _94  and  _95
REMARK   41  A    between atoms: _94  and  _97
REMARK   42  A    between atoms: _97  and  _98
REMARK   43  A    between atoms: _101  and  _103
REMARK   44  A    between atoms: _103  and  _104
REMARK   45  A    between atoms: _103  and  _106
REMARK   46  A    between atoms: _109  and  _111
REMARK   47  A    between atoms: _111  and  _112
REMARK   48  A    between atoms: _111  and  _114
REMARK   49  A    between atoms: _114  and  _115
REMARK   50  A    between atoms: _118  and  _120
REMARK   51  A    between atoms: _120  and  _121
REMARK   52  A    between atoms: _120  and  _123
REMARK   53  A    between atoms: _123  and  _124
REMARK   54  A    between atoms: _124  and  _125
REMARK   55  A    between atoms: _125  and  _126
REMARK   56  A    between atoms: _126  and  _127
REMARK   57  A    between atoms: _131  and  _133
REMARK   58  A    between atoms: _133  and  _134
REMARK   59  A    between atoms: _133  and  _136
REMARK   60  A    between atoms: _136  and  _137
REMARK   61  A    between atoms: _137  and  _138
REMARK   62  A    between atoms: _140  and  _142
REMARK   63  A    between atoms: _142  and  _143
REMARK   64  A    between atoms: _142  and  _145
REMARK   65  A    between atoms: _145  and  _146
REMARK   66  A    between atoms: _149  and  _151
REMARK   67  A    between atoms: _151  and  _152
REMARK   68  A    between atoms: _154  and  _156
REMARK   69  A    between atoms: _156  and  _157
REMARK   70  A    between atoms: _159  and  _161
REMARK   71  A    between atoms: _161  and  _162
REMARK   72  A    between atoms: _161  and  _164
REMARK   73  A    between atoms: _164  and  _165
REMARK   74  A    between atoms: _168  and  _170
REMARK   75  A    between atoms: _170  and  _171
REMARK   76  A    between atoms: _173  and  _175
REMARK   77  A    between atoms: _175  and  _176
REMARK   78  A    between atoms: _178  and  _180
REMARK   79  A    between atoms: _180  and  _181
REMARK   80  A    between atoms: _180  and  _183
REMARK   81  A    between atoms: _183  and  _184
REMARK   82  A    between atoms: _190  and  _192
REMARK   83  A    between atoms: _192  and  _193
REMARK   84  A    between atoms: _192  and  _195
REMARK   85  A    between atoms: _195  and  _196
REMARK   86  A    between atoms: _199  and  _201
REMARK   87  A    between atoms: _201  and  _202
REMARK   88  A    between atoms: _201  and  _204
REMARK   89  A    between atoms: _207  and  _209
REMARK   90  A    between atoms: _209  and  _210
REMARK   91  A    between atoms: _209  and  _212
REMARK   92  A    between atoms: _212  and  _213
REMARK   93  A    between atoms: _217  and  _218
REMARK   94  A    between atoms: _223  and  _225
REMARK   95  A    between atoms: _225  and  _226
REMARK   96  A    between atoms: _225  and  _228
REMARK   97  A    between atoms: _228  and  _229
REMARK   98  A    between atoms: _233  and  _234
REMARK   99  A    between atoms: _239  and  _241
REMARK  100  A    between atoms: _241  and  _242
REMARK  101  A    between atoms: _241  and  _244
REMARK  102  A    between atoms: _247  and  _249
REMARK  103  A    between atoms: _249  and  _250
REMARK  104  A    between atoms: _249  and  _252
REMARK  105  A    between atoms: _252  and  _253
REMARK  106  A    between atoms: _258  and  _260
REMARK  107  A    between atoms: _260  and  _261
REMARK  108  A    between atoms: _260  and  _263
REMARK  109  A    between atoms: _263  and  _264
REMARK  110  A    between atoms: _267  and  _269
REMARK  111  A    between atoms: _269  and  _270
REMARK  112  A    between atoms: _269  and  _272
REMARK  113  A    between atoms: _272  and  _273
REMARK  114  A    between atoms: _276  and  _278
REMARK  115  A    between atoms: _278  and  _279
REMARK  116  A    between atoms: _281  and  _283
REMARK  117  A    between atoms: _283  and  _284
REMARK  118  A    between atoms: _283  and  _286
REMARK  119  A    between atoms: _286  and  _287
REMARK  120  A    between atoms: _287  and  _288
REMARK  121  A    between atoms: _288  and  _289
REMARK  122  A    between atoms: _298  and  _300
REMARK  123  A    between atoms: _300  and  _301
REMARK  124  A    between atoms: _300  and  _303
REMARK  125  A    between atoms: _303  and  _304
REMARK  126  A    between atoms: _309  and  _311
REMARK  127  A    between atoms: _311  and  _312
REMARK  128  A    between atoms: _311  and  _314
REMARK  129  A    between atoms: _314  and  _315
REMARK  130  A    between atoms: _315  and  _316
REMARK  131  A    between atoms: _316  and  _317
REMARK  132  A    between atoms: _326  and  _328
REMARK  133  A    between atoms: _328  and  _329
REMARK  134  A    between atoms: _328  and  _331
REMARK  135  A    between atoms: _331  and  _332
REMARK  136  A    between atoms: _335  and  _337
REMARK  137  A    between atoms: _337  and  _338
REMARK  138  A    between atoms: _337  and  _340
REMARK  139  A    between atoms: _340  and  _341
REMARK  140  A    between atoms: _344  and  _346
REMARK  141  A    between atoms: _346  and  _347
REMARK  142  A    between atoms: _346  and  _349
REMARK  143  A    between atoms: _349  and  _350
REMARK  144  A    between atoms: _353  and  _355
REMARK  145  A    between atoms: _355  and  _356
REMARK  146  A    between atoms: _355  and  _358
REMARK  147  A    between atoms: _358  and  _359
REMARK  148  A    between atoms: _362  and  _364
REMARK  149  A    between atoms: _364  and  _365
REMARK  150  A    between atoms: _364  and  _367
REMARK  151  A    between atoms: _367  and  _368
REMARK  152  A    between atoms: _371  and  _373
REMARK  153  A    between atoms: _373  and  _374
REMARK  154  A    between atoms: _376  and  _378
REMARK  155  A    between atoms: _378  and  _379
REMARK  156  A    between atoms: _382  and  _384
REMARK  157  A    between atoms: _384  and  _385
REMARK  158  A    between atoms: _384  and  _387
REMARK  159  A    between atoms: _387  and  _388
REMARK  160  A    between atoms: _391  and  _393
REMARK  161  A    between atoms: _393  and  _394
REMARK  162  A    between atoms: _393  and  _396
REMARK  163  A    between atoms: _396  and  _397
REMARK  164  A    between atoms: _400  and  _402
REMARK  165  A    between atoms: _402  and  _403
REMARK  166  A    between atoms: _402  and  _405
REMARK  167  A    between atoms: _405  and  _406
REMARK  168  A    between atoms: _409  and  _411
REMARK  169  A    between atoms: _411  and  _412
REMARK  170  A    between atoms: _411  and  _414
REMARK  171  A    between atoms: _417  and  _419
REMARK  172  A    between atoms: _419  and  _420
REMARK  173  A    between atoms: _419  and  _422
REMARK  174  A    between atoms: _422  and  _423
REMARK  175  A    between atoms: _426  and  _428
REMARK  176  A    between atoms: _428  and  _429
REMARK  177  A    between atoms: _428  and  _431
REMARK  178  A    between atoms: _431  and  _432
REMARK  179  A    between atoms: _432  and  _433
REMARK  180  A    between atoms: _433  and  _434
REMARK  181  A    between atoms: _434  and  _435
REMARK  182  A    between atoms: _439  and  _441
REMARK  183  A    between atoms: _441  and  _442
REMARK  184  A    between atoms: _441  and  _444
REMARK  185  A    between atoms: _444  and  _445
REMARK  186  A    between atoms: _445  and  _446
REMARK  187  A    between atoms: _448  and  _450
REMARK  188  A    between atoms: _450  and  _451
REMARK  189  A    between atoms: _450  and  _453
REMARK  190  A    between atoms: _453  and  _454
REMARK  191  A    between atoms: _457  and  _459
REMARK  192  A    between atoms: _459  and  _460
REMARK  193  A    between atoms: _462  and  _464
REMARK  194  A    between atoms: _464  and  _465
REMARK  195  A    between atoms: _467  and  _469
REMARK  196  A    between atoms: _469  and  _470
REMARK  197  A    between atoms: _469  and  _472
REMARK  198  A    between atoms: _472  and  _473
REMARK  199  A    between atoms: _476  and  _478
REMARK  200  A    between atoms: _478  and  _479
REMARK  201  A    between atoms: _481  and  _483
REMARK  202  A    between atoms: _483  and  _484
REMARK  203  A    between atoms: _486  and  _488
REMARK  204  A    between atoms: _488  and  _489
REMARK  205  A    between atoms: _488  and  _491
REMARK  206  A    between atoms: _491  and  _492
REMARK  207  A    between atoms: _498  and  _500
REMARK  208  A    between atoms: _500  and  _501
REMARK  209  A    between atoms: _500  and  _503
REMARK  210  A    between atoms: _503  and  _504
REMARK  211  A    between atoms: _507  and  _509
REMARK  212  A    between atoms: _509  and  _510
REMARK  213  A    between atoms: _509  and  _512
REMARK  214  A    between atoms: _515  and  _517
REMARK  215  A    between atoms: _517  and  _518
REMARK  216  A    between atoms: _517  and  _520
REMARK  217  A    between atoms: _520  and  _521
REMARK  218  A    between atoms: _525  and  _526
REMARK  219  A    between atoms: _531  and  _533
REMARK  220  A    between atoms: _533  and  _534
REMARK  221  A    between atoms: _533  and  _536
REMARK  222  A    between atoms: _536  and  _537
REMARK  223  A    between atoms: _541  and  _542
REMARK  224  A    between atoms: _547  and  _549
REMARK  225  A    between atoms: _549  and  _550
REMARK  226  A    between atoms: _549  and  _552
REMARK  227  A    between atoms: _555  and  _557
REMARK  228  A    between atoms: _557  and  _558
REMARK  229  A    between atoms: _557  and  _560
REMARK  230  A    between atoms: _560  and  _561
REMARK  231  A    between atoms: _566  and  _568
REMARK  232  A    between atoms: _568  and  _569
REMARK  233  A    between atoms: _568  and  _571
REMARK  234  A    between atoms: _571  and  _572
REMARK  235  A    between atoms: _575  and  _577
REMARK  236  A    between atoms: _577  and  _578
REMARK  237  A    between atoms: _577  and  _580
REMARK  238  A    between atoms: _580  and  _581
REMARK  239  A    between atoms: _584  and  _586
REMARK  240  A    between atoms: _586  and  _587
REMARK  241  A    between atoms: _589  and  _591
REMARK  242  A    between atoms: _591  and  _592
REMARK  243  A    between atoms: _591  and  _594
REMARK  244  A    between atoms: _594  and  _595
REMARK  245  A    between atoms: _595  and  _596
REMARK  246  A    between atoms: _596  and  _597
REMARK  247  A    between atoms: _606  and  _608
REMARK  248  A    between atoms: _608  and  _609
REMARK  249  A    between atoms: _608  and  _611
REMARK  250  A    between atoms: _611  and  _612
REMARK                            x       y       z     vdW  Elec       q    Type
REMARK                         _______ _______ _______ _____ _____    ______ ____
ROOT
ATOM      1  CA  ILE A   6      13.715  22.169  -3.363  0.00  0.00    +0.149 C 
ENDROOT
BRANCH   1   2
ATOM      2  C   ILE A   6      15.094  22.014  -3.989  0.00  0.00    +0.241 C 
ATOM      3  N   ILE A   7      15.763  23.137  -4.220  0.00  0.00    -0.297 N 
ATOM      4  H   ILE A   7      15.313  24.054  -4.022  0.00  0.00    +0.150 HD
ATOM      5  O   ILE A   6      15.537  20.904  -4.260  0.00  0.00    -0.273 OA
BRANCH   3   6
ATOM      6  CA  ILE A   7      17.116  23.100  -4.746  0.00  0.00    +0.149 C 
BRANCH   6   7
ATOM      7  C   ILE A   7      17.965  23.312  -3.503  0.00  0.00    +0.241 C 
ATOM      8  O   ILE A   7      17.936  24.389  -2.899  0.00  0.00    -0.273 OA
ATOM      9  N   GLY A   8      18.691  22.272  -3.111  0.00  0.00    -0.295 N 
ATOM     10  H   GLY A   8      18.670  21.394  -3.668  0.00  0.00    +0.150 HD
BRANCH   9  11
ATOM     11  CA  GLY A   8      19.514  22.341  -1.918  0.00  0.00    +0.176 C 
BRANCH  11  12
ATOM     12  C   GLY A   8      20.949  22.760  -2.150  0.00  0.00    +0.243 C 
ATOM     13  N   ARG A   9      21.732  22.739  -1.081  0.00  0.00    -0.297 N 
ATOM     14  H   ARG A   9      21.346  22.418  -0.170  0.00  0.00    +0.150 HD
ATOM     15  O   GLY A   8      21.354  23.085  -3.265  0.00  0.00    -0.273 OA
BRANCH  13  16
ATOM     16  CA  ARG A   9      23.121  23.157  -1.161  0.00  0.00    +0.149 C 
BRANCH  16  17
ATOM     17  C   ARG A   9      23.975  22.385  -2.153  0.00  0.00    +0.241 C 
ATOM     18  N   ASN A  10      23.660  21.115  -2.385  0.00  0.00    -0.298 N 
ATOM     19  H   ASN A  10      22.845  20.680  -1.909  0.00  0.00    +0.150 HD
ATOM     20  O   ARG A   9      24.909  22.946  -2.724  0.00  0.00    -0.273 OA
BRANCH  18  21
ATOM     21  CA  ASN A  10      24.471  20.340  -3.315  0.00  0.00    +0.146 C 
BRANCH  21  22
ATOM     22  C   ASN A  10      24.480  20.978  -4.701  0.00  0.00    +0.227 C 
ATOM     23  O   ASN A  10      25.496  20.952  -5.393  0.00  0.00    -0.286 OA
ENDBRANCH  21  22
BRANCH  21  24
ATOM     24  CB  ASN A  10      23.987  18.884  -3.390  0.00  0.00    +0.112 C 
BRANCH  24  25
ATOM     25  CG  ASN A  10      22.665  18.741  -4.115  0.00  0.00    +0.222 C 
ATOM     26  OD1 ASN A  10      21.672  19.366  -3.750  0.00  0.00    -0.275 OA
ATOM     27  ND2 ASN A  10      22.648  17.910  -5.153  0.00  0.00    -0.329 N 
ATOM     28 HD21 ASN A  10      23.513  17.402  -5.426  0.00  0.00    +0.145 HD
ATOM     29 HD22 ASN A  10      21.770  17.769  -5.692  0.00  0.00    +0.145 HD
ENDBRANCH  24  25
ENDBRANCH  21  24
ENDBRANCH  18  21
ENDBRANCH  16  17
BRANCH  16  30
ATOM     30  CB  ARG A   9      23.759  23.107   0.230  0.00  0.00    +0.033 C 
BRANCH  30  31
ATOM     31  CG  ARG A   9      23.172  24.138   1.180  0.00  0.00    +0.045 C 
BRANCH  31  32
ATOM     32  CD  ARG A   9      23.962  24.240   2.488  0.00  0.00    +0.174 C 
BRANCH  32  33
ATOM     33  NE  ARG A   9      23.968  22.979   3.223  0.00  0.00    -0.265 N 
ATOM     34  HE  ARG A   9      23.125  22.739   3.782  0.00  0.00    +0.259 HD
ATOM     35  CZ  ARG A   9      24.980  22.116   3.225  0.00  0.00    +0.342 C 
ATOM     36  NH2 ARG A   9      24.882  20.983   3.908  0.00  0.00    -0.292 N 
ATOM     37 HH21 ARG A   9      24.015  20.770   4.441  0.00  0.00    +0.255 HD
ATOM     38 HH22 ARG A   9      25.673  20.307   3.910  0.00  0.00    +0.255 HD
ATOM     39  NH1 ARG A   9      26.082  22.377   2.534  0.00  0.00    -0.292 N 
ATOM     40 HH11 ARG A   9      26.871  21.700   2.538  0.00  0.00    +0.255 HD
ATOM     41 HH12 ARG A   9      26.157  23.259   1.988  0.00  0.00    +0.255 HD
ENDBRANCH  32  33
ENDBRANCH  31  32
ENDBRANCH  30  31
ENDBRANCH  16  30
ENDBRANCH  13  16
ENDBRANCH  11  12
ENDBRANCH   9  11
ENDBRANCH   6   7
BRANCH   6  42
ATOM     42  CB  ILE A   7      17.384  24.232  -5.746  0.00  0.00    +0.027 C 
ATOM     43  CG2 ILE A   7      18.819  24.143  -6.245  0.00  0.00    +0.002 C 
BRANCH  42  44
ATOM     44  CG1 ILE A   7      16.403  24.132  -6.920  0.00  0.00    +0.002 C 
ATOM     45  CD1 ILE A   7      16.441  22.806  -7.647  0.00  0.00    +0.000 C 
ENDBRANCH  42  44
ENDBRANCH   6  42
ENDBRANCH   3   6
ENDBRANCH   1   2
BRANCH   1  47
ATOM     46  C   ASN A   5      11.611  22.182  -4.582  0.00  0.00    +0.241 C 
ATOM     47  N   ILE A   6      12.650  21.506  -4.104  0.00  0.00    -0.297 N 
ATOM     48  H   ILE A   6      12.704  20.480  -4.262  0.00  0.00    +0.150 HD
ATOM     49  O   ASN A   5      11.495  23.398  -4.477  0.00  0.00    -0.273 OA
BRANCH  46  50
ATOM     50  CA  ASN A   5      10.544  21.361  -5.286  0.00  0.00    +0.158 C 
BRANCH  50  53
ATOM     51  C   VAL A   4       8.962  21.279  -3.463  0.00  0.00    +0.241 C 
ATOM     52  O   VAL A   4       9.710  20.555  -2.804  0.00  0.00    -0.273 OA
ATOM     53  N   ASN A   5       9.269  21.716  -4.681  0.00  0.00    -0.297 N 
ATOM     54  H   ASN A   5       8.596  22.313  -5.203  0.00  0.00    +0.150 HD
BRANCH  51  55
ATOM     55  CA  VAL A   4       7.623  21.718  -2.897  0.00  0.00    +0.149 C 
BRANCH  55  57
ATOM     56  C   PRO A   3       5.980  20.562  -1.513  0.00  0.00    +0.241 C 
ATOM     57  N   VAL A   4       7.251  20.819  -1.811  0.00  0.00    -0.297 N 
ATOM     58  H   VAL A   4       8.002  20.365  -1.253  0.00  0.00    +0.150 HD
ATOM     59  O   PRO A   3       5.030  21.067  -2.118  0.00  0.00    -0.273 OA
BRANCH  56  65
ATOM     60  C   THR A   2       7.112  17.699  -1.069  0.00  0.00    +0.246 C 
ATOM     61  N   PRO A   3       6.824  18.634  -0.149  0.00  0.00    -0.272 N 
ATOM     62  CD  PRO A   3       7.368  18.735   1.215  0.00  0.00    +0.094 C 
ATOM     63  CG  PRO A   3       6.207  19.350   1.966  0.00  0.00    +0.024 C 
ATOM     64  CB  PRO A   3       5.690  20.352   0.984  0.00  0.00    +0.031 C 
ATOM     65  CA  PRO A   3       5.741  19.607  -0.349  0.00  0.00    +0.152 C 
ATOM     66  O   THR A   2       6.487  17.611  -2.122  0.00  0.00    -0.273 OA
BRANCH  60  67
ATOM     67  CA  THR A   2       8.254  16.732  -0.767  0.00  0.00    +0.176 C 
BRANCH  67  70
ATOM     68  C   PRO A   1       7.088  14.623  -0.670  0.00  0.00    +0.239 C 
ATOM     69  O   PRO A   1       6.633  14.900   0.438  0.00  0.00    -0.274 OA
ATOM     70  N   THR A   2       7.902  15.437  -1.332  0.00  0.00    -0.295 N 
ATOM     71  H   THR A   2       8.288  15.150  -2.254  0.00  0.00    +0.150 HD
BRANCH  68  76
ATOM     72  N   PRO A   1       7.884  12.523  -1.799  0.00  0.00    -0.210 NA
ATOM     73  CD  PRO A   1       8.071  11.329  -0.953  0.00  0.00    +0.089 C 
ATOM     74  CG  PRO A   1       7.168  11.618   0.228  0.00  0.00    +0.021 C 
ATOM     75  CB  PRO A   1       6.028  12.340  -0.402  0.00  0.00    +0.028 C 
ATOM     76  CA  PRO A   1       6.736  13.305  -1.345  0.00  0.00    +0.149 C 
ENDBRANCH  68  76
ENDBRANCH  67  70
BRANCH  67  77
ATOM     77  CB  THR A   2       9.547  17.288  -1.379  0.00  0.00    +0.137 C 
ATOM     78  CG2 THR A   2       9.444  17.328  -2.897  0.00  0.00    +0.034 C 
BRANCH  77  79
ATOM     79  OG1 THR A   2       9.781  18.606  -0.867  0.00  0.00    -0.382 OA
ATOM     80  HG1 THR A   2       9.020  19.192  -1.107  0.00  0.00    +0.210 HD
ENDBRANCH  77  79
ENDBRANCH  67  77
ENDBRANCH  60  67
ENDBRANCH  56  65
ENDBRANCH  55  57
BRANCH  55  81
ATOM     81  CB  VAL A   4       7.787  23.176  -2.402  0.00  0.00    +0.027 C 
ATOM     82  CG2 VAL A   4       8.813  23.223  -1.281  0.00  0.00    +0.002 C 
ATOM     83  CG1 VAL A   4       6.453  23.727  -1.918  0.00  0.00    +0.002 C 
ENDBRANCH  55  81
ENDBRANCH  51  55
ENDBRANCH  50  53
BRANCH  50  84
ATOM     84  CB  ASN A   5      10.536  21.667  -6.781  0.00  0.00    +0.114 C 
BRANCH  84  85
ATOM     85  CG  ASN A   5       9.590  20.769  -7.543  0.00  0.00    +0.222 C 
ATOM     86  OD1 ASN A   5       9.539  19.568  -7.300  0.00  0.00    -0.275 OA
ATOM     87  ND2 ASN A   5       8.841  21.345  -8.477  0.00  0.00    -0.329 N 
ATOM     88 HD21 ASN A   5       8.918  22.368  -8.648  0.00  0.00    +0.145 HD
ATOM     89 HD22 ASN A   5       8.177  20.773  -9.037  0.00  0.00    +0.145 HD
ENDBRANCH  84  85
ENDBRANCH  50  84
ENDBRANCH  46  50
ENDBRANCH   1  47
BRANCH   1  90
ATOM     90  CB  ILE A   6      13.805  21.601  -1.927  0.00  0.00    +0.027 C 
ATOM     91  CG2 ILE A   6      14.987  22.222  -1.185  0.00  0.00    +0.002 C 
BRANCH  90  92
ATOM     92  CG1 ILE A   6      12.490  21.845  -1.186  0.00  0.00    +0.002 C 
ATOM     93  CD1 ILE A   6      12.356  21.013   0.073  0.00  0.00    +0.000 C 
ENDBRANCH  90  92
ENDBRANCH   1  90
TORSDOF 33
REMARK  Name = ../refined-set-2016/1w5x/1w5x_pocket.pdb
REMARK  250 active torsions:
REMARK  status: ('A' for Active; 'I' for Inactive)
REMARK    1  A    between atoms: _1  and  _3
REMARK    2  A    between atoms: _3  and  _4
REMARK    3  A    between atoms: _3  and  _6
REMARK    4  A    between atoms: _6  and  _7
REMARK    5  A    between atoms: _7  and  _8
REMARK    6  A    between atoms: _8  and  _9
REMARK    7  A    between atoms: _18  and  _20
REMARK    8  A    between atoms: _20  and  _21
REMARK    9  A    between atoms: _20  and  _23
REMARK   10  A    between atoms: _23  and  _24
REMARK   11  A    between atoms: _27  and  _29
REMARK   12  A    between atoms: _29  and  _30
REMARK   13  A    between atoms: _29  and  _32
REMARK   14  A    between atoms: _32  and  _33
REMARK   15  A    between atoms: _36  and  _38
REMARK   16  A    between atoms: _38  and  _39
REMARK   17  A    between atoms: _38  and  _41
REMARK   18  A    between atoms: _41  and  _42
REMARK   19  A    between atoms: _45  and  _47
REMARK   20  A    between atoms: _47  and  _48
REMARK   21  A    between atoms: _47  and  _50
REMARK   22  A    between atoms: _50  and  _51
REMARK   23  A    between atoms: _54  and  _56
REMARK   24  A    between atoms: _56  and  _57
REMARK   25  A    between atoms: _56  and  _59
REMARK   26  A    between atoms: _59  and  _60
REMARK   27  A    between atoms: _63  and  _65
REMARK   28  A    between atoms: _65  and  _66
REMARK   29  A    between atoms: _68  and  _70
REMARK   30  A    between atoms: _70  and  _71
REMARK   31  A    between atoms: _74  and  _76
REMARK   32  A    between atoms: _76  and  _77
REMARK   33  A    between atoms: _76  and  _79
REMARK   34  A    between atoms: _79  and  _80
REMARK   35  A    between atoms: _83  and  _85
REMARK   36  A    between atoms: _85  and  _86
REMARK   37  A    between atoms: _85  and  _88
REMARK   38  A    between atoms: _88  and  _89
REMARK   39  A    between atoms: _92  and  _94
REMARK   40  A    between atoms: _94  and  _95
REMARK   41  A    between atoms: _94  and  _97
REMARK   42  A    between atoms: _97  and  _98
REMARK   43  A    between atoms: _101  and  _103
REMARK   44  A    between atoms: _103  and  _104
REMARK   45  A    between atoms: _103  and  _106
REMARK   46  A    between atoms: _109  and  _111
REMARK   47  A    between atoms: _111  and  _112
REMARK   48  A    between atoms: _111  and  _114
REMARK   49  A    between atoms: _114  and  _115
REMARK   50  A    between atoms: _118  and  _120
REMARK   51  A    between atoms: _120  and  _121
REMARK   52  A    between atoms: _120  and  _123
REMARK   53  A    between atoms: _123  and  _124
REMARK   54  A    between atoms: _124  and  _125
REMARK   55  A    between atoms: _125  and  _126
REMARK   56  A    between atoms: _126  and  _127
REMARK   57  A    between atoms: _131  and  _133
REMARK   58  A    between atoms: _133  and  _134
REMARK   59  A    between atoms: _133  and  _136
REMARK   60  A    between atoms: _136  and  _137
REMARK   61  A    between atoms: _137  and  _138
REMARK   62  A    between atoms: _140  and  _142
REMARK   63  A    between atoms: _142  and  _143
REMARK   64  A    between atoms: _142  and  _145
REMARK   65  A    between atoms: _145  and  _146
REMARK   66  A    between atoms: _149  and  _151
REMARK   67  A    between atoms: _151  and  _152
REMARK   68  A    between atoms: _154  and  _156
REMARK   69  A    between atoms: _156  and  _157
REMARK   70  A    between atoms: _159  and  _161
REMARK   71  A    between atoms: _161  and  _162
REMARK   72  A    between atoms: _161  and  _164
REMARK   73  A    between atoms: _164  and  _165
REMARK   74  A    between atoms: _168  and  _170
REMARK   75  A    between atoms: _170  and  _171
REMARK   76  A    between atoms: _173  and  _175
REMARK   77  A    between atoms: _175  and  _176
REMARK   78  A    between atoms: _178  and  _180
REMARK   79  A    between atoms: _180  and  _181
REMARK   80  A    between atoms: _180  and  _183
REMARK   81  A    between atoms: _183  and  _184
REMARK   82  A    between atoms: _190  and  _192
REMARK   83  A    between atoms: _192  and  _193
REMARK   84  A    between atoms: _192  and  _195
REMARK   85  A    between atoms: _195  and  _196
REMARK   86  A    between atoms: _199  and  _201
REMARK   87  A    between atoms: _201  and  _202
REMARK   88  A    between atoms: _201  and  _204
REMARK   89  A    between atoms: _207  and  _209
REMARK   90  A    between atoms: _209  and  _210
REMARK   91  A    between atoms: _209  and  _212
REMARK   92  A    between atoms: _212  and  _213
REMARK   93  A    between atoms: _217  and  _218
REMARK   94  A    between atoms: _223  and  _225
REMARK   95  A    between atoms: _225  and  _226
REMARK   96  A    between atoms: _225  and  _228
REMARK   97  A    between atoms: _228  and  _229
REMARK   98  A    between atoms: _233  and  _234
REMARK   99  A    between atoms: _239  and  _241
REMARK  100  A    between atoms: _241  and  _242
REMARK  101  A    between atoms: _241  and  _244
REMARK  102  A    between atoms: _247  and  _249
REMARK  103  A    between atoms: _249  and  _250
REMARK  104  A    between atoms: _249  and  _252
REMARK  105  A    between atoms: _252  and  _253
REMARK  106  A    between atoms: _258  and  _260
REMARK  107  A    between atoms: _260  and  _261
REMARK  108  A    between atoms: _260  and  _263
REMARK  109  A    between atoms: _263  and  _264
REMARK  110  A    between atoms: _267  and  _269
REMARK  111  A    between atoms: _269  and  _270
REMARK  112  A    between atoms: _269  and  _272
REMARK  113  A    between atoms: _272  and  _273
REMARK  114  A    between atoms: _276  and  _278
REMARK  115  A    between atoms: _278  and  _279
REMARK  116  A    between atoms: _281  and  _283
REMARK  117  A    between atoms: _283  and  _284
REMARK  118  A    between atoms: _283  and  _286
REMARK  119  A    between atoms: _286  and  _287
REMARK  120  A    between atoms: _287  and  _288
REMARK  121  A    between atoms: _288  and  _289
REMARK  122  A    between atoms: _298  and  _300
REMARK  123  A    between atoms: _300  and  _301
REMARK  124  A    between atoms: _300  and  _303
REMARK  125  A    between atoms: _303  and  _304
REMARK  126  A    between atoms: _309  and  _311
REMARK  127  A    between atoms: _311  and  _312
REMARK  128  A    between atoms: _311  and  _314
REMARK  129  A    between atoms: _314  and  _315
REMARK  130  A    between atoms: _315  and  _316
REMARK  131  A    between atoms: _316  and  _317
REMARK  132  A    between atoms: _326  and  _328
REMARK  133  A    between atoms: _328  and  _329
REMARK  134  A    between atoms: _328  and  _331
REMARK  135  A    between atoms: _331  and  _332
REMARK  136  A    between atoms: _335  and  _337
REMARK  137  A    between atoms: _337  and  _338
REMARK  138  A    between atoms: _337  and  _340
REMARK  139  A    between atoms: _340  and  _341
REMARK  140  A    between atoms: _344  and  _346
REMARK  141  A    between atoms: _346  and  _347
REMARK  142  A    between atoms: _346  and  _349
REMARK  143  A    between atoms: _349  and  _350
REMARK  144  A    between atoms: _353  and  _355
REMARK  145  A    between atoms: _355  and  _356
REMARK  146  A    between atoms: _355  and  _358
REMARK  147  A    between atoms: _358  and  _359
REMARK  148  A    between atoms: _362  and  _364
REMARK  149  A    between atoms: _364  and  _365
REMARK  150  A    between atoms: _364  and  _367
REMARK  151  A    between atoms: _367  and  _368
REMARK  152  A    between atoms: _371  and  _373
REMARK  153  A    between atoms: _373  and  _374
REMARK  154  A    between atoms: _376  and  _378
REMARK  155  A    between atoms: _378  and  _379
REMARK  156  A    between atoms: _382  and  _384
REMARK  157  A    between atoms: _384  and  _385
REMARK  158  A    between atoms: _384  and  _387
REMARK  159  A    between atoms: _387  and  _388
REMARK  160  A    between atoms: _391  and  _393
REMARK  161  A    between atoms: _393  and  _394
REMARK  162  A    between atoms: _393  and  _396
REMARK  163  A    between atoms: _396  and  _397
REMARK  164  A    between atoms: _400  and  _402
REMARK  165  A    between atoms: _402  and  _403
REMARK  166  A    between atoms: _402  and  _405
REMARK  167  A    between atoms: _405  and  _406
REMARK  168  A    between atoms: _409  and  _411
REMARK  169  A    between atoms: _411  and  _412
REMARK  170  A    between atoms: _411  and  _414
REMARK  171  A    between atoms: _417  and  _419
REMARK  172  A    between atoms: _419  and  _420
REMARK  173  A    between atoms: _419  and  _422
REMARK  174  A    between atoms: _422  and  _423
REMARK  175  A    between atoms: _426  and  _428
REMARK  176  A    between atoms: _428  and  _429
REMARK  177  A    between atoms: _428  and  _431
REMARK  178  A    between atoms: _431  and  _432
REMARK  179  A    between atoms: _432  and  _433
REMARK  180  A    between atoms: _433  and  _434
REMARK  181  A    between atoms: _434  and  _435
REMARK  182  A    between atoms: _439  and  _441
REMARK  183  A    between atoms: _441  and  _442
REMARK  184  A    between atoms: _441  and  _444
REMARK  185  A    between atoms: _444  and  _445
REMARK  186  A    between atoms: _445  and  _446
REMARK  187  A    between atoms: _448  and  _450
REMARK  188  A    between atoms: _450  and  _451
REMARK  189  A    between atoms: _450  and  _453
REMARK  190  A    between atoms: _453  and  _454
REMARK  191  A    between atoms: _457  and  _459
REMARK  192  A    between atoms: _459  and  _460
REMARK  193  A    between atoms: _462  and  _464
REMARK  194  A    between atoms: _464  and  _465
REMARK  195  A    between atoms: _467  and  _469
REMARK  196  A    between atoms: _469  and  _470
REMARK  197  A    between atoms: _469  and  _472
REMARK  198  A    between atoms: _472  and  _473
REMARK  199  A    between atoms: _476  and  _478
REMARK  200  A    between atoms: _478  and  _479
REMARK  201  A    between atoms: _481  and  _483
REMARK  202  A    between atoms: _483  and  _484
REMARK  203  A    between atoms: _486  and  _488
REMARK  204  A    between atoms: _488  and  _489
REMARK  205  A    between atoms: _488  and  _491
REMARK  206  A    between atoms: _491  and  _492
REMARK  207  A    between atoms: _498  and  _500
REMARK  208  A    between atoms: _500  and  _501
REMARK  209  A    between atoms: _500  and  _503
REMARK  210  A    between atoms: _503  and  _504
REMARK  211  A    between atoms: _507  and  _509
REMARK  212  A    between atoms: _509  and  _510
REMARK  213  A    between atoms: _509  and  _512
REMARK  214  A    between atoms: _515  and  _517
REMARK  215  A    between atoms: _517  and  _518
REMARK  216  A    between atoms: _517  and  _520
REMARK  217  A    between atoms: _520  and  _521
REMARK  218  A    between atoms: _525  and  _526
REMARK  219  A    between atoms: _531  and  _533
REMARK  220  A    between atoms: _533  and  _534
REMARK  221  A    between atoms: _533  and  _536
REMARK  222  A    between atoms: _536  and  _537
REMARK  223  A    between atoms: _541  and  _542
REMARK  224  A    between atoms: _547  and  _549
REMARK  225  A    between atoms: _549  and  _550
REMARK  226  A    between atoms: _549  and  _552
REMARK  227  A    between atoms: _555  and  _557
REMARK  228  A    between atoms: _557  and  _558
REMARK  229  A    between atoms: _557  and  _560
REMARK  230  A    between atoms: _560  and  _561
REMARK  231  A    between atoms: _566  and  _568
REMARK  232  A    between atoms: _568  and  _569
REMARK  233  A    between atoms: _568  and  _571
REMARK  234  A    between atoms: _571  and  _572
REMARK  235  A    between atoms: _575  and  _577
REMARK  236  A    between atoms: _577  and  _578
REMARK  237  A    between atoms: _577  and  _580
REMARK  238  A    between atoms: _580  and  _581
REMARK  239  A    between atoms: _584  and  _586
REMARK  240  A    between atoms: _586  and  _587
REMARK  241  A    between atoms: _589  and  _591
REMARK  242  A    between atoms: _591  and  _592
REMARK  243  A    between atoms: _591  and  _594
REMARK  244  A    between atoms: _594  and  _595
REMARK  245  A    between atoms: _595  and  _596
REMARK  246  A    between atoms: _596  and  _597
REMARK  247  A    between atoms: _606  and  _608
REMARK  248  A    between atoms: _608  and  _609
REMARK  249  A    between atoms: _608  and  _611
REMARK  250  A    between atoms: _611  and  _612
REMARK                            x       y       z     vdW  Elec       q    Type
REMARK                         _______ _______ _______ _____ _____    ______ ____
ROOT
ATOM      1  O   HOH     1      20.481  16.936  10.103  0.00  0.00    +0.000 OA
ENDROOT
TORSDOF 0
REMARK  Name = ../refined-set-2016/1w5x/1w5x_pocket.pdb
REMARK  250 active torsions:
REMARK  status: ('A' for Active; 'I' for Inactive)
REMARK    1  A    between atoms: _1  and  _3
REMARK    2  A    between atoms: _3  and  _4
REMARK    3  A    between atoms: _3  and  _6
REMARK    4  A    between atoms: _6  and  _7
REMARK    5  A    between atoms: _7  and  _8
REMARK    6  A    between atoms: _8  and  _9
REMARK    7  A    between atoms: _18  and  _20
REMARK    8  A    between atoms: _20  and  _21
REMARK    9  A    between atoms: _20  and  _23
REMARK   10  A    between atoms: _23  and  _24
REMARK   11  A    between atoms: _27  and  _29
REMARK   12  A    between atoms: _29  and  _30
REMARK   13  A    between atoms: _29  and  _32
REMARK   14  A    between atoms: _32  and  _33
REMARK   15  A    between atoms: _36  and  _38
REMARK   16  A    between atoms: _38  and  _39
REMARK   17  A    between atoms: _38  and  _41
REMARK   18  A    between atoms: _41  and  _42
REMARK   19  A    between atoms: _45  and  _47
REMARK   20  A    between atoms: _47  and  _48
REMARK   21  A    between atoms: _47  and  _50
REMARK   22  A    between atoms: _50  and  _51
REMARK   23  A    between atoms: _54  and  _56
REMARK   24  A    between atoms: _56  and  _57
REMARK   25  A    between atoms: _56  and  _59
REMARK   26  A    between atoms: _59  and  _60
REMARK   27  A    between atoms: _63  and  _65
REMARK   28  A    between atoms: _65  and  _66
REMARK   29  A    between atoms: _68  and  _70
REMARK   30  A    between atoms: _70  and  _71
REMARK   31  A    between atoms: _74  and  _76
REMARK   32  A    between atoms: _76  and  _77
REMARK   33  A    between atoms: _76  and  _79
REMARK   34  A    between atoms: _79  and  _80
REMARK   35  A    between atoms: _83  and  _85
REMARK   36  A    between atoms: _85  and  _86
REMARK   37  A    between atoms: _85  and  _88
REMARK   38  A    between atoms: _88  and  _89
REMARK   39  A    between atoms: _92  and  _94
REMARK   40  A    between atoms: _94  and  _95
REMARK   41  A    between atoms: _94  and  _97
REMARK   42  A    between atoms: _97  and  _98
REMARK   43  A    between atoms: _101  and  _103
REMARK   44  A    between atoms: _103  and  _104
REMARK   45  A    between atoms: _103  and  _106
REMARK   46  A    between atoms: _109  and  _111
REMARK   47  A    between atoms: _111  and  _112
REMARK   48  A    between atoms: _111  and  _114
REMARK   49  A    between atoms: _114  and  _115
REMARK   50  A    between atoms: _118  and  _120
REMARK   51  A    between atoms: _120  and  _121
REMARK   52  A    between atoms: _120  and  _123
REMARK   53  A    between atoms: _123  and  _124
REMARK   54  A    between atoms: _124  and  _125
REMARK   55  A    between atoms: _125  and  _126
REMARK   56  A    between atoms: _126  and  _127
REMARK   57  A    between atoms: _131  and  _133
REMARK   58  A    between atoms: _133  and  _134
REMARK   59  A    between atoms: _133  and  _136
REMARK   60  A    between atoms: _136  and  _137
REMARK   61  A    between atoms: _137  and  _138
REMARK   62  A    between atoms: _140  and  _142
REMARK   63  A    between atoms: _142  and  _143
REMARK   64  A    between atoms: _142  and  _145
REMARK   65  A    between atoms: _145  and  _146
REMARK   66  A    between atoms: _149  and  _151
REMARK   67  A    between atoms: _151  and  _152
REMARK   68  A    between atoms: _154  and  _156
REMARK   69  A    between atoms: _156  and  _157
REMARK   70  A    between atoms: _159  and  _161
REMARK   71  A    between atoms: _161  and  _162
REMARK   72  A    between atoms: _161  and  _164
REMARK   73  A    between atoms: _164  and  _165
REMARK   74  A    between atoms: _168  and  _170
REMARK   75  A    between atoms: _170  and  _171
REMARK   76  A    between atoms: _173  and  _175
REMARK   77  A    between atoms: _175  and  _176
REMARK   78  A    between atoms: _178  and  _180
REMARK   79  A    between atoms: _180  and  _181
REMARK   80  A    between atoms: _180  and  _183
REMARK   81  A    between atoms: _183  and  _184
REMARK   82  A    between atoms: _190  and  _192
REMARK   83  A    between atoms: _192  and  _193
REMARK   84  A    between atoms: _192  and  _195
REMARK   85  A    between atoms: _195  and  _196
REMARK   86  A    between atoms: _199  and  _201
REMARK   87  A    between atoms: _201  and  _202
REMARK   88  A    between atoms: _201  and  _204
REMARK   89  A    between atoms: _207  and  _209
REMARK   90  A    between atoms: _209  and  _210
REMARK   91  A    between atoms: _209  and  _212
REMARK   92  A    between atoms: _212  and  _213
REMARK   93  A    between atoms: _217  and  _218
REMARK   94  A    between atoms: _223  and  _225
REMARK   95  A    between atoms: _225  and  _226
REMARK   96  A    between atoms: _225  and  _228
REMARK   97  A    between atoms: _228  and  _229
REMARK   98  A    between atoms: _233  and  _234
REMARK   99  A    between atoms: _239  and  _241
REMARK  100  A    between atoms: _241  and  _242
REMARK  101  A    between atoms: _241  and  _244
REMARK  102  A    between atoms: _247  and  _249
REMARK  103  A    between atoms: _249  and  _250
REMARK  104  A    between atoms: _249  and  _252
REMARK  105  A    between atoms: _252  and  _253
REMARK  106  A    between atoms: _258  and  _260
REMARK  107  A    between atoms: _260  and  _261
REMARK  108  A    between atoms: _260  and  _263
REMARK  109  A    between atoms: _263  and  _264
REMARK  110  A    between atoms: _267  and  _269
REMARK  111  A    between atoms: _269  and  _270
REMARK  112  A    between atoms: _269  and  _272
REMARK  113  A    between atoms: _272  and  _273
REMARK  114  A    between atoms: _276  and  _278
REMARK  115  A    between atoms: _278  and  _279
REMARK  116  A    between atoms: _281  and  _283
REMARK  117  A    between atoms: _283  and  _284
REMARK  118  A    between atoms: _283  and  _286
REMARK  119  A    between atoms: _286  and  _287
REMARK  120  A    between atoms: _287  and  _288
REMARK  121  A    between atoms: _288  and  _289
REMARK  122  A    between atoms: _298  and  _300
REMARK  123  A    between atoms: _300  and  _301
REMARK  124  A    between atoms: _300  and  _303
REMARK  125  A    between atoms: _303  and  _304
REMARK  126  A    between atoms: _309  and  _311
REMARK  127  A    between atoms: _311  and  _312
REMARK  128  A    between atoms: _311  and  _314
REMARK  129  A    between atoms: _314  and  _315
REMARK  130  A    between atoms: _315  and  _316
REMARK  131  A    between atoms: _316  and  _317
REMARK  132  A    between atoms: _326  and  _328
REMARK  133  A    between atoms: _328  and  _329
REMARK  134  A    between atoms: _328  and  _331
REMARK  135  A    between atoms: _331  and  _332
REMARK  136  A    between atoms: _335  and  _337
REMARK  137  A    between atoms: _337  and  _338
REMARK  138  A    between atoms: _337  and  _340
REMARK  139  A    between atoms: _340  and  _341
REMARK  140  A    between atoms: _344  and  _346
REMARK  141  A    between atoms: _346  and  _347
REMARK  142  A    between atoms: _346  and  _349
REMARK  143  A    between atoms: _349  and  _350
REMARK  144  A    between atoms: _353  and  _355
REMARK  145  A    between atoms: _355  and  _356
REMARK  146  A    between atoms: _355  and  _358
REMARK  147  A    between atoms: _358  and  _359
REMARK  148  A    between atoms: _362  and  _364
REMARK  149  A    between atoms: _364  and  _365
REMARK  150  A    between atoms: _364  and  _367
REMARK  151  A    between atoms: _367  and  _368
REMARK  152  A    between atoms: _371  and  _373
REMARK  153  A    between atoms: _373  and  _374
REMARK  154  A    between atoms: _376  and  _378
REMARK  155  A    between atoms: _378  and  _379
REMARK  156  A    between atoms: _382  and  _384
REMARK  157  A    between atoms: _384  and  _385
REMARK  158  A    between atoms: _384  and  _387
REMARK  159  A    between atoms: _387  and  _388
REMARK  160  A    between atoms: _391  and  _393
REMARK  161  A    between atoms: _393  and  _394
REMARK  162  A    between atoms: _393  and  _396
REMARK  163  A    between atoms: _396  and  _397
REMARK  164  A    between atoms: _400  and  _402
REMARK  165  A    between atoms: _402  and  _403
REMARK  166  A    between atoms: _402  and  _405
REMARK  167  A    between atoms: _405  and  _406
REMARK  168  A    between atoms: _409  and  _411
REMARK  169  A    between atoms: _411  and  _412
REMARK  170  A    between atoms: _411  and  _414
REMARK  171  A    between atoms: _417  and  _419
REMARK  172  A    between atoms: _419  and  _420
REMARK  173  A    between atoms: _419  and  _422
REMARK  174  A    between atoms: _422  and  _423
REMARK  175  A    between atoms: _426  and  _428
REMARK  176  A    between atoms: _428  and  _429
REMARK  177  A    between atoms: _428  and  _431
REMARK  178  A    between atoms: _431  and  _432
REMARK  179  A    between atoms: _432  and  _433
REMARK  180  A    between atoms: _433  and  _434
REMARK  181  A    between atoms: _434  and  _435
REMARK  182  A    between atoms: _439  and  _441
REMARK  183  A    between atoms: _441  and  _442
REMARK  184  A    between atoms: _441  and  _444
REMARK  185  A    between atoms: _444  and  _445
REMARK  186  A    between atoms: _445  and  _446
REMARK  187  A    between atoms: _448  and  _450
REMARK  188  A    between atoms: _450  and  _451
REMARK  189  A    between atoms: _450  and  _453
REMARK  190  A    between atoms: _453  and  _454
REMARK  191  A    between atoms: _457  and  _459
REMARK  192  A    between atoms: _459  and  _460
REMARK  193  A    between atoms: _462  and  _464
REMARK  194  A    between atoms: _464  and  _465
REMARK  195  A    between atoms: _467  and  _469
REMARK  196  A    between atoms: _469  and  _470
REMARK  197  A    between atoms: _469  and  _472
REMARK  198  A    between atoms: _472  and  _473
REMARK  199  A    between atoms: _476  and  _478
REMARK  200  A    between atoms: _478  and  _479
REMARK  201  A    between atoms: _481  and  _483
REMARK  202  A    between atoms: _483  and  _484
REMARK  203  A    between atoms: _486  and  _488
REMARK  204  A    between atoms: _488  and  _489
REMARK  205  A    between atoms: _488  and  _491
REMARK  206  A    between atoms: _491  and  _492
REMARK  207  A    between atoms: _498  and  _500
REMARK  208  A    between atoms: _500  and  _501
REMARK  209  A    between atoms: _500  and  _503
REMARK  210  A    between atoms: _503  and  _504
REMARK  211  A    between atoms: _507  and  _509
REMARK  212  A    between atoms: _509  and  _510
REMARK  213  A    between atoms: _509  and  _512
REMARK  214  A    between atoms: _515  and  _517
REMARK  215  A    between atoms: _517  and  _518
REMARK  216  A    between atoms: _517  and  _520
REMARK  217  A    between atoms: _520  and  _521
REMARK  218  A    between atoms: _525  and  _526
REMARK  219  A    between atoms: _531  and  _533
REMARK  220  A    between atoms: _533  and  _534
REMARK  221  A    between atoms: _533  and  _536
REMARK  222  A    between atoms: _536  and  _537
REMARK  223  A    between atoms: _541  and  _542
REMARK  224  A    between atoms: _547  and  _549
REMARK  225  A    between atoms: _549  and  _550
REMARK  226  A    between atoms: _549  and  _552
REMARK  227  A    between atoms: _555  and  _557
REMARK  228  A    between atoms: _557  and  _558
REMARK  229  A    between atoms: _557  and  _560
REMARK  230  A    between atoms: _560  and  _561
REMARK  231  A    between atoms: _566  and  _568
REMARK  232  A    between atoms: _568  and  _569
REMARK  233  A    between atoms: _568  and  _571
REMARK  234  A    between atoms: _571  and  _572
REMARK  235  A    between atoms: _575  and  _577
REMARK  236  A    between atoms: _577  and  _578
REMARK  237  A    between atoms: _577  and  _580
REMARK  238  A    between atoms: _580  and  _581
REMARK  239  A    between atoms: _584  and  _586
REMARK  240  A    between atoms: _586  and  _587
REMARK  241  A    between atoms: _589  and  _591
REMARK  242  A    between atoms: _591  and  _592
REMARK  243  A    between atoms: _591  and  _594
REMARK  244  A    between atoms: _594  and  _595
REMARK  245  A    between atoms: _595  and  _596
REMARK  246  A    between atoms: _596  and  _597
REMARK  247  A    between atoms: _606  and  _608
REMARK  248  A    between atoms: _608  and  _609
REMARK  249  A    between atoms: _608  and  _611
REMARK  250  A    between atoms: _611  and  _612
REMARK                            x       y       z     vdW  Elec       q    Type
REMARK                         _______ _______ _______ _____ _____    ______ ____
ROOT
ATOM      1  O   HOH     1      23.552  21.753  11.696  0.00  0.00    +0.000 OA
ENDROOT
TORSDOF 0
REMARK  Name = ../refined-set-2016/1w5x/1w5x_pocket.pdb
REMARK  250 active torsions:
REMARK  status: ('A' for Active; 'I' for Inactive)
REMARK    1  A    between atoms: _1  and  _3
REMARK    2  A    between atoms: _3  and  _4
REMARK    3  A    between atoms: _3  and  _6
REMARK    4  A    between atoms: _6  and  _7
REMARK    5  A    between atoms: _7  and  _8
REMARK    6  A    between atoms: _8  and  _9
REMARK    7  A    between atoms: _18  and  _20
REMARK    8  A    between atoms: _20  and  _21
REMARK    9  A    between atoms: _20  and  _23
REMARK   10  A    between atoms: _23  and  _24
REMARK   11  A    between atoms: _27  and  _29
REMARK   12  A    between atoms: _29  and  _30
REMARK   13  A    between atoms: _29  and  _32
REMARK   14  A    between atoms: _32  and  _33
REMARK   15  A    between atoms: _36  and  _38
REMARK   16  A    between atoms: _38  and  _39
REMARK   17  A    between atoms: _38  and  _41
REMARK   18  A    between atoms: _41  and  _42
REMARK   19  A    between atoms: _45  and  _47
REMARK   20  A    between atoms: _47  and  _48
REMARK   21  A    between atoms: _47  and  _50
REMARK   22  A    between atoms: _50  and  _51
REMARK   23  A    between atoms: _54  and  _56
REMARK   24  A    between atoms: _56  and  _57
REMARK   25  A    between atoms: _56  and  _59
REMARK   26  A    between atoms: _59  and  _60
REMARK   27  A    between atoms: _63  and  _65
REMARK   28  A    between atoms: _65  and  _66
REMARK   29  A    between atoms: _68  and  _70
REMARK   30  A    between atoms: _70  and  _71
REMARK   31  A    between atoms: _74  and  _76
REMARK   32  A    between atoms: _76  and  _77
REMARK   33  A    between atoms: _76  and  _79
REMARK   34  A    between atoms: _79  and  _80
REMARK   35  A    between atoms: _83  and  _85
REMARK   36  A    between atoms: _85  and  _86
REMARK   37  A    between atoms: _85  and  _88
REMARK   38  A    between atoms: _88  and  _89
REMARK   39  A    between atoms: _92  and  _94
REMARK   40  A    between atoms: _94  and  _95
REMARK   41  A    between atoms: _94  and  _97
REMARK   42  A    between atoms: _97  and  _98
REMARK   43  A    between atoms: _101  and  _103
REMARK   44  A    between atoms: _103  and  _104
REMARK   45  A    between atoms: _103  and  _106
REMARK   46  A    between atoms: _109  and  _111
REMARK   47  A    between atoms: _111  and  _112
REMARK   48  A    between atoms: _111  and  _114
REMARK   49  A    between atoms: _114  and  _115
REMARK   50  A    between atoms: _118  and  _120
REMARK   51  A    between atoms: _120  and  _121
REMARK   52  A    between atoms: _120  and  _123
REMARK   53  A    between atoms: _123  and  _124
REMARK   54  A    between atoms: _124  and  _125
REMARK   55  A    between atoms: _125  and  _126
REMARK   56  A    between atoms: _126  and  _127
REMARK   57  A    between atoms: _131  and  _133
REMARK   58  A    between atoms: _133  and  _134
REMARK   59  A    between atoms: _133  and  _136
REMARK   60  A    between atoms: _136  and  _137
REMARK   61  A    between atoms: _137  and  _138
REMARK   62  A    between atoms: _140  and  _142
REMARK   63  A    between atoms: _142  and  _143
REMARK   64  A    between atoms: _142  and  _145
REMARK   65  A    between atoms: _145  and  _146
REMARK   66  A    between atoms: _149  and  _151
REMARK   67  A    between atoms: _151  and  _152
REMARK   68  A    between atoms: _154  and  _156
REMARK   69  A    between atoms: _156  and  _157
REMARK   70  A    between atoms: _159  and  _161
REMARK   71  A    between atoms: _161  and  _162
REMARK   72  A    between atoms: _161  and  _164
REMARK   73  A    between atoms: _164  and  _165
REMARK   74  A    between atoms: _168  and  _170
REMARK   75  A    between atoms: _170  and  _171
REMARK   76  A    between atoms: _173  and  _175
REMARK   77  A    between atoms: _175  and  _176
REMARK   78  A    between atoms: _178  and  _180
REMARK   79  A    between atoms: _180  and  _181
REMARK   80  A    between atoms: _180  and  _183
REMARK   81  A    between atoms: _183  and  _184
REMARK   82  A    between atoms: _190  and  _192
REMARK   83  A    between atoms: _192  and  _193
REMARK   84  A    between atoms: _192  and  _195
REMARK   85  A    between atoms: _195  and  _196
REMARK   86  A    between atoms: _199  and  _201
REMARK   87  A    between atoms: _201  and  _202
REMARK   88  A    between atoms: _201  and  _204
REMARK   89  A    between atoms: _207  and  _209
REMARK   90  A    between atoms: _209  and  _210
REMARK   91  A    between atoms: _209  and  _212
REMARK   92  A    between atoms: _212  and  _213
REMARK   93  A    between atoms: _217  and  _218
REMARK   94  A    between atoms: _223  and  _225
REMARK   95  A    between atoms: _225  and  _226
REMARK   96  A    between atoms: _225  and  _228
REMARK   97  A    between atoms: _228  and  _229
REMARK   98  A    between atoms: _233  and  _234
REMARK   99  A    between atoms: _239  and  _241
REMARK  100  A    between atoms: _241  and  _242
REMARK  101  A    between atoms: _241  and  _244
REMARK  102  A    between atoms: _247  and  _249
REMARK  103  A    between atoms: _249  and  _250
REMARK  104  A    between atoms: _249  and  _252
REMARK  105  A    between atoms: _252  and  _253
REMARK  106  A    between atoms: _258  and  _260
REMARK  107  A    between atoms: _260  and  _261
REMARK  108  A    between atoms: _260  and  _263
REMARK  109  A    between atoms: _263  and  _264
REMARK  110  A    between atoms: _267  and  _269
REMARK  111  A    between atoms: _269  and  _270
REMARK  112  A    between atoms: _269  and  _272
REMARK  113  A    between atoms: _272  and  _273
REMARK  114  A    between atoms: _276  and  _278
REMARK  115  A    between atoms: _278  and  _279
REMARK  116  A    between atoms: _281  and  _283
REMARK  117  A    between atoms: _283  and  _284
REMARK  118  A    between atoms: _283  and  _286
REMARK  119  A    between atoms: _286  and  _287
REMARK  120  A    between atoms: _287  and  _288
REMARK  121  A    between atoms: _288  and  _289
REMARK  122  A    between atoms: _298  and  _300
REMARK  123  A    between atoms: _300  and  _301
REMARK  124  A    between atoms: _300  and  _303
REMARK  125  A    between atoms: _303  and  _304
REMARK  126  A    between atoms: _309  and  _311
REMARK  127  A    between atoms: _311  and  _312
REMARK  128  A    between atoms: _311  and  _314
REMARK  129  A    between atoms: _314  and  _315
REMARK  130  A    between atoms: _315  and  _316
REMARK  131  A    between atoms: _316  and  _317
REMARK  132  A    between atoms: _326  and  _328
REMARK  133  A    between atoms: _328  and  _329
REMARK  134  A    between atoms: _328  and  _331
REMARK  135  A    between atoms: _331  and  _332
REMARK  136  A    between atoms: _335  and  _337
REMARK  137  A    between atoms: _337  and  _338
REMARK  138  A    between atoms: _337  and  _340
REMARK  139  A    between atoms: _340  and  _341
REMARK  140  A    between atoms: _344  and  _346
REMARK  141  A    between atoms: _346  and  _347
REMARK  142  A    between atoms: _346  and  _349
REMARK  143  A    between atoms: _349  and  _350
REMARK  144  A    between atoms: _353  and  _355
REMARK  145  A    between atoms: _355  and  _356
REMARK  146  A    between atoms: _355  and  _358
REMARK  147  A    between atoms: _358  and  _359
REMARK  148  A    between atoms: _362  and  _364
REMARK  149  A    between atoms: _364  and  _365
REMARK  150  A    between atoms: _364  and  _367
REMARK  151  A    between atoms: _367  and  _368
REMARK  152  A    between atoms: _371  and  _373
REMARK  153  A    between atoms: _373  and  _374
REMARK  154  A    between atoms: _376  and  _378
REMARK  155  A    between atoms: _378  and  _379
REMARK  156  A    between atoms: _382  and  _384
REMARK  157  A    between atoms: _384  and  _385
REMARK  158  A    between atoms: _384  and  _387
REMARK  159  A    between atoms: _387  and  _388
REMARK  160  A    between atoms: _391  and  _393
REMARK  161  A    between atoms: _393  and  _394
REMARK  162  A    between atoms: _393  and  _396
REMARK  163  A    between atoms: _396  and  _397
REMARK  164  A    between atoms: _400  and  _402
REMARK  165  A    between atoms: _402  and  _403
REMARK  166  A    between atoms: _402  and  _405
REMARK  167  A    between atoms: _405  and  _406
REMARK  168  A    between atoms: _409  and  _411
REMARK  169  A    between atoms: _411  and  _412
REMARK  170  A    between atoms: _411  and  _414
REMARK  171  A    between atoms: _417  and  _419
REMARK  172  A    between atoms: _419  and  _420
REMARK  173  A    between atoms: _419  and  _422
REMARK  174  A    between atoms: _422  and  _423
REMARK  175  A    between atoms: _426  and  _428
REMARK  176  A    between atoms: _428  and  _429
REMARK  177  A    between atoms: _428  and  _431
REMARK  178  A    between atoms: _431  and  _432
REMARK  179  A    between atoms: _432  and  _433
REMARK  180  A    between atoms: _433  and  _434
REMARK  181  A    between atoms: _434  and  _435
REMARK  182  A    between atoms: _439  and  _441
REMARK  183  A    between atoms: _441  and  _442
REMARK  184  A    between atoms: _441  and  _444
REMARK  185  A    between atoms: _444  and  _445
REMARK  186  A    between atoms: _445  and  _446
REMARK  187  A    between atoms: _448  and  _450
REMARK  188  A    between atoms: _450  and  _451
REMARK  189  A    between atoms: _450  and  _453
REMARK  190  A    between atoms: _453  and  _454
REMARK  191  A    between atoms: _457  and  _459
REMARK  192  A    between atoms: _459  and  _460
REMARK  193  A    between atoms: _462  and  _464
REMARK  194  A    between atoms: _464  and  _465
REMARK  195  A    between atoms: _467  and  _469
REMARK  196  A    between atoms: _469  and  _470
REMARK  197  A    between atoms: _469  and  _472
REMARK  198  A    between atoms: _472  and  _473
REMARK  199  A    between atoms: _476  and  _478
REMARK  200  A    between atoms: _478  and  _479
REMARK  201  A    between atoms: _481  and  _483
REMARK  202  A    between atoms: _483  and  _484
REMARK  203  A    between atoms: _486  and  _488
REMARK  204  A    between atoms: _488  and  _489
REMARK  205  A    between atoms: _488  and  _491
REMARK  206  A    between atoms: _491  and  _492
REMARK  207  A    between atoms: _498  and  _500
REMARK  208  A    between atoms: _500  and  _501
REMARK  209  A    between atoms: _500  and  _503
REMARK  210  A    between atoms: _503  and  _504
REMARK  211  A    between atoms: _507  and  _509
REMARK  212  A    between atoms: _509  and  _510
REMARK  213  A    between atoms: _509  and  _512
REMARK  214  A    between atoms: _515  and  _517
REMARK  215  A    between atoms: _517  and  _518
REMARK  216  A    between atoms: _517  and  _520
REMARK  217  A    between atoms: _520  and  _521
REMARK  218  A    between atoms: _525  and  _526
REMARK  219  A    between atoms: _531  and  _533
REMARK  220  A    between atoms: _533  and  _534
REMARK  221  A    between atoms: _533  and  _536
REMARK  222  A    between atoms: _536  and  _537
REMARK  223  A    between atoms: _541  and  _542
REMARK  224  A    between atoms: _547  and  _549
REMARK  225  A    between atoms: _549  and  _550
REMARK  226  A    between atoms: _549  and  _552
REMARK  227  A    between atoms: _555  and  _557
REMARK  228  A    between atoms: _557  and  _558
REMARK  229  A    between atoms: _557  and  _560
REMARK  230  A    between atoms: _560  and  _561
REMARK  231  A    between atoms: _566  and  _568
REMARK  232  A    between atoms: _568  and  _569
REMARK  233  A    between atoms: _568  and  _571
REMARK  234  A    between atoms: _571  and  _572
REMARK  235  A    between atoms: _575  and  _577
REMARK  236  A    between atoms: _577  and  _578
REMARK  237  A    between atoms: _577  and  _580
REMARK  238  A    between atoms: _580  and  _581
REMARK  239  A    between atoms: _584  and  _586
REMARK  240  A    between atoms: _586  and  _587
REMARK  241  A    between atoms: _589  and  _591
REMARK  242  A    between atoms: _591  and  _592
REMARK  243  A    between atoms: _591  and  _594
REMARK  244  A    between atoms: _594  and  _595
REMARK  245  A    between atoms: _595  and  _596
REMARK  246  A    between atoms: _596  and  _597
REMARK  247  A    between atoms: _606  and  _608
REMARK  248  A    between atoms: _608  and  _609
REMARK  249  A    between atoms: _608  and  _611
REMARK  250  A    between atoms: _611  and  _612
REMARK                            x       y       z     vdW  Elec       q    Type
REMARK                         _______ _______ _______ _____ _____    ______ ____
ROOT
ATOM      1  O   HOH     1      11.082  30.478   1.672  0.00  0.00    +0.000 OA
ENDROOT
TORSDOF 0
REMARK  Name = ../refined-set-2016/1w5x/1w5x_pocket.pdb
REMARK  250 active torsions:
REMARK  status: ('A' for Active; 'I' for Inactive)
REMARK    1  A    between atoms: _1  and  _3
REMARK    2  A    between atoms: _3  and  _4
REMARK    3  A    between atoms: _3  and  _6
REMARK    4  A    between atoms: _6  and  _7
REMARK    5  A    between atoms: _7  and  _8
REMARK    6  A    between atoms: _8  and  _9
REMARK    7  A    between atoms: _18  and  _20
REMARK    8  A    between atoms: _20  and  _21
REMARK    9  A    between atoms: _20  and  _23
REMARK   10  A    between atoms: _23  and  _24
REMARK   11  A    between atoms: _27  and  _29
REMARK   12  A    between atoms: _29  and  _30
REMARK   13  A    between atoms: _29  and  _32
REMARK   14  A    between atoms: _32  and  _33
REMARK   15  A    between atoms: _36  and  _38
REMARK   16  A    between atoms: _38  and  _39
REMARK   17  A    between atoms: _38  and  _41
REMARK   18  A    between atoms: _41  and  _42
REMARK   19  A    between atoms: _45  and  _47
REMARK   20  A    between atoms: _47  and  _48
REMARK   21  A    between atoms: _47  and  _50
REMARK   22  A    between atoms: _50  and  _51
REMARK   23  A    between atoms: _54  and  _56
REMARK   24  A    between atoms: _56  and  _57
REMARK   25  A    between atoms: _56  and  _59
REMARK   26  A    between atoms: _59  and  _60
REMARK   27  A    between atoms: _63  and  _65
REMARK   28  A    between atoms: _65  and  _66
REMARK   29  A    between atoms: _68  and  _70
REMARK   30  A    between atoms: _70  and  _71
REMARK   31  A    between atoms: _74  and  _76
REMARK   32  A    between atoms: _76  and  _77
REMARK   33  A    between atoms: _76  and  _79
REMARK   34  A    between atoms: _79  and  _80
REMARK   35  A    between atoms: _83  and  _85
REMARK   36  A    between atoms: _85  and  _86
REMARK   37  A    between atoms: _85  and  _88
REMARK   38  A    between atoms: _88  and  _89
REMARK   39  A    between atoms: _92  and  _94
REMARK   40  A    between atoms: _94  and  _95
REMARK   41  A    between atoms: _94  and  _97
REMARK   42  A    between atoms: _97  and  _98
REMARK   43  A    between atoms: _101  and  _103
REMARK   44  A    between atoms: _103  and  _104
REMARK   45  A    between atoms: _103  and  _106
REMARK   46  A    between atoms: _109  and  _111
REMARK   47  A    between atoms: _111  and  _112
REMARK   48  A    between atoms: _111  and  _114
REMARK   49  A    between atoms: _114  and  _115
REMARK   50  A    between atoms: _118  and  _120
REMARK   51  A    between atoms: _120  and  _121
REMARK   52  A    between atoms: _120  and  _123
REMARK   53  A    between atoms: _123  and  _124
REMARK   54  A    between atoms: _124  and  _125
REMARK   55  A    between atoms: _125  and  _126
REMARK   56  A    between atoms: _126  and  _127
REMARK   57  A    between atoms: _131  and  _133
REMARK   58  A    between atoms: _133  and  _134
REMARK   59  A    between atoms: _133  and  _136
REMARK   60  A    between atoms: _136  and  _137
REMARK   61  A    between atoms: _137  and  _138
REMARK   62  A    between atoms: _140  and  _142
REMARK   63  A    between atoms: _142  and  _143
REMARK   64  A    between atoms: _142  and  _145
REMARK   65  A    between atoms: _145  and  _146
REMARK   66  A    between atoms: _149  and  _151
REMARK   67  A    between atoms: _151  and  _152
REMARK   68  A    between atoms: _154  and  _156
REMARK   69  A    between atoms: _156  and  _157
REMARK   70  A    between atoms: _159  and  _161
REMARK   71  A    between atoms: _161  and  _162
REMARK   72  A    between atoms: _161  and  _164
REMARK   73  A    between atoms: _164  and  _165
REMARK   74  A    between atoms: _168  and  _170
REMARK   75  A    between atoms: _170  and  _171
REMARK   76  A    between atoms: _173  and  _175
REMARK   77  A    between atoms: _175  and  _176
REMARK   78  A    between atoms: _178  and  _180
REMARK   79  A    between atoms: _180  and  _181
REMARK   80  A    between atoms: _180  and  _183
REMARK   81  A    between atoms: _183  and  _184
REMARK   82  A    between atoms: _190  and  _192
REMARK   83  A    between atoms: _192  and  _193
REMARK   84  A    between atoms: _192  and  _195
REMARK   85  A    between atoms: _195  and  _196
REMARK   86  A    between atoms: _199  and  _201
REMARK   87  A    between atoms: _201  and  _202
REMARK   88  A    between atoms: _201  and  _204
REMARK   89  A    between atoms: _207  and  _209
REMARK   90  A    between atoms: _209  and  _210
REMARK   91  A    between atoms: _209  and  _212
REMARK   92  A    between atoms: _212  and  _213
REMARK   93  A    between atoms: _217  and  _218
REMARK   94  A    between atoms: _223  and  _225
REMARK   95  A    between atoms: _225  and  _226
REMARK   96  A    between atoms: _225  and  _228
REMARK   97  A    between atoms: _228  and  _229
REMARK   98  A    between atoms: _233  and  _234
REMARK   99  A    between atoms: _239  and  _241
REMARK  100  A    between atoms: _241  and  _242
REMARK  101  A    between atoms: _241  and  _244
REMARK  102  A    between atoms: _247  and  _249
REMARK  103  A    between atoms: _249  and  _250
REMARK  104  A    between atoms: _249  and  _252
REMARK  105  A    between atoms: _252  and  _253
REMARK  106  A    between atoms: _258  and  _260
REMARK  107  A    between atoms: _260  and  _261
REMARK  108  A    between atoms: _260  and  _263
REMARK  109  A    between atoms: _263  and  _264
REMARK  110  A    between atoms: _267  and  _269
REMARK  111  A    between atoms: _269  and  _270
REMARK  112  A    between atoms: _269  and  _272
REMARK  113  A    between atoms: _272  and  _273
REMARK  114  A    between atoms: _276  and  _278
REMARK  115  A    between atoms: _278  and  _279
REMARK  116  A    between atoms: _281  and  _283
REMARK  117  A    between atoms: _283  and  _284
REMARK  118  A    between atoms: _283  and  _286
REMARK  119  A    between atoms: _286  and  _287
REMARK  120  A    between atoms: _287  and  _288
REMARK  121  A    between atoms: _288  and  _289
REMARK  122  A    between atoms: _298  and  _300
REMARK  123  A    between atoms: _300  and  _301
REMARK  124  A    between atoms: _300  and  _303
REMARK  125  A    between atoms: _303  and  _304
REMARK  126  A    between atoms: _309  and  _311
REMARK  127  A    between atoms: _311  and  _312
REMARK  128  A    between atoms: _311  and  _314
REMARK  129  A    between atoms: _314  and  _315
REMARK  130  A    between atoms: _315  and  _316
REMARK  131  A    between atoms: _316  and  _317
REMARK  132  A    between atoms: _326  and  _328
REMARK  133  A    between atoms: _328  and  _329
REMARK  134  A    between atoms: _328  and  _331
REMARK  135  A    between atoms: _331  and  _332
REMARK  136  A    between atoms: _335  and  _337
REMARK  137  A    between atoms: _337  and  _338
REMARK  138  A    between atoms: _337  and  _340
REMARK  139  A    between atoms: _340  and  _341
REMARK  140  A    between atoms: _344  and  _346
REMARK  141  A    between atoms: _346  and  _347
REMARK  142  A    between atoms: _346  and  _349
REMARK  143  A    between atoms: _349  and  _350
REMARK  144  A    between atoms: _353  and  _355
REMARK  145  A    between atoms: _355  and  _356
REMARK  146  A    between atoms: _355  and  _358
REMARK  147  A    between atoms: _358  and  _359
REMARK  148  A    between atoms: _362  and  _364
REMARK  149  A    between atoms: _364  and  _365
REMARK  150  A    between atoms: _364  and  _367
REMARK  151  A    between atoms: _367  and  _368
REMARK  152  A    between atoms: _371  and  _373
REMARK  153  A    between atoms: _373  and  _374
REMARK  154  A    between atoms: _376  and  _378
REMARK  155  A    between atoms: _378  and  _379
REMARK  156  A    between atoms: _382  and  _384
REMARK  157  A    between atoms: _384  and  _385
REMARK  158  A    between atoms: _384  and  _387
REMARK  159  A    between atoms: _387  and  _388
REMARK  160  A    between atoms: _391  and  _393
REMARK  161  A    between atoms: _393  and  _394
REMARK  162  A    between atoms: _393  and  _396
REMARK  163  A    between atoms: _396  and  _397
REMARK  164  A    between atoms: _400  and  _402
REMARK  165  A    between atoms: _402  and  _403
REMARK  166  A    between atoms: _402  and  _405
REMARK  167  A    between atoms: _405  and  _406
REMARK  168  A    between atoms: _409  and  _411
REMARK  169  A    between atoms: _411  and  _412
REMARK  170  A    between atoms: _411  and  _414
REMARK  171  A    between atoms: _417  and  _419
REMARK  172  A    between atoms: _419  and  _420
REMARK  173  A    between atoms: _419  and  _422
REMARK  174  A    between atoms: _422  and  _423
REMARK  175  A    between atoms: _426  and  _428
REMARK  176  A    between atoms: _428  and  _429
REMARK  177  A    between atoms: _428  and  _431
REMARK  178  A    between atoms: _431  and  _432
REMARK  179  A    between atoms: _432  and  _433
REMARK  180  A    between atoms: _433  and  _434
REMARK  181  A    between atoms: _434  and  _435
REMARK  182  A    between atoms: _439  and  _441
REMARK  183  A    between atoms: _441  and  _442
REMARK  184  A    between atoms: _441  and  _444
REMARK  185  A    between atoms: _444  and  _445
REMARK  186  A    between atoms: _445  and  _446
REMARK  187  A    between atoms: _448  and  _450
REMARK  188  A    between atoms: _450  and  _451
REMARK  189  A    between atoms: _450  and  _453
REMARK  190  A    between atoms: _453  and  _454
REMARK  191  A    between atoms: _457  and  _459
REMARK  192  A    between atoms: _459  and  _460
REMARK  193  A    between atoms: _462  and  _464
REMARK  194  A    between atoms: _464  and  _465
REMARK  195  A    between atoms: _467  and  _469
REMARK  196  A    between atoms: _469  and  _470
REMARK  197  A    between atoms: _469  and  _472
REMARK  198  A    between atoms: _472  and  _473
REMARK  199  A    between atoms: _476  and  _478
REMARK  200  A    between atoms: _478  and  _479
REMARK  201  A    between atoms: _481  and  _483
REMARK  202  A    between atoms: _483  and  _484
REMARK  203  A    between atoms: _486  and  _488
REMARK  204  A    between atoms: _488  and  _489
REMARK  205  A    between atoms: _488  and  _491
REMARK  206  A    between atoms: _491  and  _492
REMARK  207  A    between atoms: _498  and  _500
REMARK  208  A    between atoms: _500  and  _501
REMARK  209  A    between atoms: _500  and  _503
REMARK  210  A    between atoms: _503  and  _504
REMARK  211  A    between atoms: _507  and  _509
REMARK  212  A    between atoms: _509  and  _510
REMARK  213  A    between atoms: _509  and  _512
REMARK  214  A    between atoms: _515  and  _517
REMARK  215  A    between atoms: _517  and  _518
REMARK  216  A    between atoms: _517  and  _520
REMARK  217  A    between atoms: _520  and  _521
REMARK  218  A    between atoms: _525  and  _526
REMARK  219  A    between atoms: _531  and  _533
REMARK  220  A    between atoms: _533  and  _534
REMARK  221  A    between atoms: _533  and  _536
REMARK  222  A    between atoms: _536  and  _537
REMARK  223  A    between atoms: _541  and  _542
REMARK  224  A    between atoms: _547  and  _549
REMARK  225  A    between atoms: _549  and  _550
REMARK  226  A    between atoms: _549  and  _552
REMARK  227  A    between atoms: _555  and  _557
REMARK  228  A    between atoms: _557  and  _558
REMARK  229  A    between atoms: _557  and  _560
REMARK  230  A    between atoms: _560  and  _561
REMARK  231  A    between atoms: _566  and  _568
REMARK  232  A    between atoms: _568  and  _569
REMARK  233  A    between atoms: _568  and  _571
REMARK  234  A    between atoms: _571  and  _572
REMARK  235  A    between atoms: _575  and  _577
REMARK  236  A    between atoms: _577  and  _578
REMARK  237  A    between atoms: _577  and  _580
REMARK  238  A    between atoms: _580  and  _581
REMARK  239  A    between atoms: _584  and  _586
REMARK  240  A    between atoms: _586  and  _587
REMARK  241  A    between atoms: _589  and  _591
REMARK  242  A    between atoms: _591  and  _592
REMARK  243  A    between atoms: _591  and  _594
REMARK  244  A    between atoms: _594  and  _595
REMARK  245  A    between atoms: _595  and  _596
REMARK  246  A    between atoms: _596  and  _597
REMARK  247  A    between atoms: _606  and  _608
REMARK  248  A    between atoms: _608  and  _609
REMARK  249  A    between atoms: _608  and  _611
REMARK  250  A    between atoms: _611  and  _612
REMARK                            x       y       z     vdW  Elec       q    Type
REMARK                         _______ _______ _______ _____ _____    ______ ____
ROOT
ATOM      1  O   HOH     1       9.362  28.607   2.058  0.00  0.00    +0.000 OA
ENDROOT
TORSDOF 0
REMARK  Name = ../refined-set-2016/1w5x/1w5x_pocket.pdb
REMARK  250 active torsions:
REMARK  status: ('A' for Active; 'I' for Inactive)
REMARK    1  A    between atoms: _1  and  _3
REMARK    2  A    between atoms: _3  and  _4
REMARK    3  A    between atoms: _3  and  _6
REMARK    4  A    between atoms: _6  and  _7
REMARK    5  A    between atoms: _7  and  _8
REMARK    6  A    between atoms: _8  and  _9
REMARK    7  A    between atoms: _18  and  _20
REMARK    8  A    between atoms: _20  and  _21
REMARK    9  A    between atoms: _20  and  _23
REMARK   10  A    between atoms: _23  and  _24
REMARK   11  A    between atoms: _27  and  _29
REMARK   12  A    between atoms: _29  and  _30
REMARK   13  A    between atoms: _29  and  _32
REMARK   14  A    between atoms: _32  and  _33
REMARK   15  A    between atoms: _36  and  _38
REMARK   16  A    between atoms: _38  and  _39
REMARK   17  A    between atoms: _38  and  _41
REMARK   18  A    between atoms: _41  and  _42
REMARK   19  A    between atoms: _45  and  _47
REMARK   20  A    between atoms: _47  and  _48
REMARK   21  A    between atoms: _47  and  _50
REMARK   22  A    between atoms: _50  and  _51
REMARK   23  A    between atoms: _54  and  _56
REMARK   24  A    between atoms: _56  and  _57
REMARK   25  A    between atoms: _56  and  _59
REMARK   26  A    between atoms: _59  and  _60
REMARK   27  A    between atoms: _63  and  _65
REMARK   28  A    between atoms: _65  and  _66
REMARK   29  A    between atoms: _68  and  _70
REMARK   30  A    between atoms: _70  and  _71
REMARK   31  A    between atoms: _74  and  _76
REMARK   32  A    between atoms: _76  and  _77
REMARK   33  A    between atoms: _76  and  _79
REMARK   34  A    between atoms: _79  and  _80
REMARK   35  A    between atoms: _83  and  _85
REMARK   36  A    between atoms: _85  and  _86
REMARK   37  A    between atoms: _85  and  _88
REMARK   38  A    between atoms: _88  and  _89
REMARK   39  A    between atoms: _92  and  _94
REMARK   40  A    between atoms: _94  and  _95
REMARK   41  A    between atoms: _94  and  _97
REMARK   42  A    between atoms: _97  and  _98
REMARK   43  A    between atoms: _101  and  _103
REMARK   44  A    between atoms: _103  and  _104
REMARK   45  A    between atoms: _103  and  _106
REMARK   46  A    between atoms: _109  and  _111
REMARK   47  A    between atoms: _111  and  _112
REMARK   48  A    between atoms: _111  and  _114
REMARK   49  A    between atoms: _114  and  _115
REMARK   50  A    between atoms: _118  and  _120
REMARK   51  A    between atoms: _120  and  _121
REMARK   52  A    between atoms: _120  and  _123
REMARK   53  A    between atoms: _123  and  _124
REMARK   54  A    between atoms: _124  and  _125
REMARK   55  A    between atoms: _125  and  _126
REMARK   56  A    between atoms: _126  and  _127
REMARK   57  A    between atoms: _131  and  _133
REMARK   58  A    between atoms: _133  and  _134
REMARK   59  A    between atoms: _133  and  _136
REMARK   60  A    between atoms: _136  and  _137
REMARK   61  A    between atoms: _137  and  _138
REMARK   62  A    between atoms: _140  and  _142
REMARK   63  A    between atoms: _142  and  _143
REMARK   64  A    between atoms: _142  and  _145
REMARK   65  A    between atoms: _145  and  _146
REMARK   66  A    between atoms: _149  and  _151
REMARK   67  A    between atoms: _151  and  _152
REMARK   68  A    between atoms: _154  and  _156
REMARK   69  A    between atoms: _156  and  _157
REMARK   70  A    between atoms: _159  and  _161
REMARK   71  A    between atoms: _161  and  _162
REMARK   72  A    between atoms: _161  and  _164
REMARK   73  A    between atoms: _164  and  _165
REMARK   74  A    between atoms: _168  and  _170
REMARK   75  A    between atoms: _170  and  _171
REMARK   76  A    between atoms: _173  and  _175
REMARK   77  A    between atoms: _175  and  _176
REMARK   78  A    between atoms: _178  and  _180
REMARK   79  A    between atoms: _180  and  _181
REMARK   80  A    between atoms: _180  and  _183
REMARK   81  A    between atoms: _183  and  _184
REMARK   82  A    between atoms: _190  and  _192
REMARK   83  A    between atoms: _192  and  _193
REMARK   84  A    between atoms: _192  and  _195
REMARK   85  A    between atoms: _195  and  _196
REMARK   86  A    between atoms: _199  and  _201
REMARK   87  A    between atoms: _201  and  _202
REMARK   88  A    between atoms: _201  and  _204
REMARK   89  A    between atoms: _207  and  _209
REMARK   90  A    between atoms: _209  and  _210
REMARK   91  A    between atoms: _209  and  _212
REMARK   92  A    between atoms: _212  and  _213
REMARK   93  A    between atoms: _217  and  _218
REMARK   94  A    between atoms: _223  and  _225
REMARK   95  A    between atoms: _225  and  _226
REMARK   96  A    between atoms: _225  and  _228
REMARK   97  A    between atoms: _228  and  _229
REMARK   98  A    between atoms: _233  and  _234
REMARK   99  A    between atoms: _239  and  _241
REMARK  100  A    between atoms: _241  and  _242
REMARK  101  A    between atoms: _241  and  _244
REMARK  102  A    between atoms: _247  and  _249
REMARK  103  A    between atoms: _249  and  _250
REMARK  104  A    between atoms: _249  and  _252
REMARK  105  A    between atoms: _252  and  _253
REMARK  106  A    between atoms: _258  and  _260
REMARK  107  A    between atoms: _260  and  _261
REMARK  108  A    between atoms: _260  and  _263
REMARK  109  A    between atoms: _263  and  _264
REMARK  110  A    between atoms: _267  and  _269
REMARK  111  A    between atoms: _269  and  _270
REMARK  112  A    between atoms: _269  and  _272
REMARK  113  A    between atoms: _272  and  _273
REMARK  114  A    between atoms: _276  and  _278
REMARK  115  A    between atoms: _278  and  _279
REMARK  116  A    between atoms: _281  and  _283
REMARK  117  A    between atoms: _283  and  _284
REMARK  118  A    between atoms: _283  and  _286
REMARK  119  A    between atoms: _286  and  _287
REMARK  120  A    between atoms: _287  and  _288
REMARK  121  A    between atoms: _288  and  _289
REMARK  122  A    between atoms: _298  and  _300
REMARK  123  A    between atoms: _300  and  _301
REMARK  124  A    between atoms: _300  and  _303
REMARK  125  A    between atoms: _303  and  _304
REMARK  126  A    between atoms: _309  and  _311
REMARK  127  A    between atoms: _311  and  _312
REMARK  128  A    between atoms: _311  and  _314
REMARK  129  A    between atoms: _314  and  _315
REMARK  130  A    between atoms: _315  and  _316
REMARK  131  A    between atoms: _316  and  _317
REMARK  132  A    between atoms: _326  and  _328
REMARK  133  A    between atoms: _328  and  _329
REMARK  134  A    between atoms: _328  and  _331
REMARK  135  A    between atoms: _331  and  _332
REMARK  136  A    between atoms: _335  and  _337
REMARK  137  A    between atoms: _337  and  _338
REMARK  138  A    between atoms: _337  and  _340
REMARK  139  A    between atoms: _340  and  _341
REMARK  140  A    between atoms: _344  and  _346
REMARK  141  A    between atoms: _346  and  _347
REMARK  142  A    between atoms: _346  and  _349
REMARK  143  A    between atoms: _349  and  _350
REMARK  144  A    between atoms: _353  and  _355
REMARK  145  A    between atoms: _355  and  _356
REMARK  146  A    between atoms: _355  and  _358
REMARK  147  A    between atoms: _358  and  _359
REMARK  148  A    between atoms: _362  and  _364
REMARK  149  A    between atoms: _364  and  _365
REMARK  150  A    between atoms: _364  and  _367
REMARK  151  A    between atoms: _367  and  _368
REMARK  152  A    between atoms: _371  and  _373
REMARK  153  A    between atoms: _373  and  _374
REMARK  154  A    between atoms: _376  and  _378
REMARK  155  A    between atoms: _378  and  _379
REMARK  156  A    between atoms: _382  and  _384
REMARK  157  A    between atoms: _384  and  _385
REMARK  158  A    between atoms: _384  and  _387
REMARK  159  A    between atoms: _387  and  _388
REMARK  160  A    between atoms: _391  and  _393
REMARK  161  A    between atoms: _393  and  _394
REMARK  162  A    between atoms: _393  and  _396
REMARK  163  A    between atoms: _396  and  _397
REMARK  164  A    between atoms: _400  and  _402
REMARK  165  A    between atoms: _402  and  _403
REMARK  166  A    between atoms: _402  and  _405
REMARK  167  A    between atoms: _405  and  _406
REMARK  168  A    between atoms: _409  and  _411
REMARK  169  A    between atoms: _411  and  _412
REMARK  170  A    between atoms: _411  and  _414
REMARK  171  A    between atoms: _417  and  _419
REMARK  172  A    between atoms: _419  and  _420
REMARK  173  A    between atoms: _419  and  _422
REMARK  174  A    between atoms: _422  and  _423
REMARK  175  A    between atoms: _426  and  _428
REMARK  176  A    between atoms: _428  and  _429
REMARK  177  A    between atoms: _428  and  _431
REMARK  178  A    between atoms: _431  and  _432
REMARK  179  A    between atoms: _432  and  _433
REMARK  180  A    between atoms: _433  and  _434
REMARK  181  A    between atoms: _434  and  _435
REMARK  182  A    between atoms: _439  and  _441
REMARK  183  A    between atoms: _441  and  _442
REMARK  184  A    between atoms: _441  and  _444
REMARK  185  A    between atoms: _444  and  _445
REMARK  186  A    between atoms: _445  and  _446
REMARK  187  A    between atoms: _448  and  _450
REMARK  188  A    between atoms: _450  and  _451
REMARK  189  A    between atoms: _450  and  _453
REMARK  190  A    between atoms: _453  and  _454
REMARK  191  A    between atoms: _457  and  _459
REMARK  192  A    between atoms: _459  and  _460
REMARK  193  A    between atoms: _462  and  _464
REMARK  194  A    between atoms: _464  and  _465
REMARK  195  A    between atoms: _467  and  _469
REMARK  196  A    between atoms: _469  and  _470
REMARK  197  A    between atoms: _469  and  _472
REMARK  198  A    between atoms: _472  and  _473
REMARK  199  A    between atoms: _476  and  _478
REMARK  200  A    between atoms: _478  and  _479
REMARK  201  A    between atoms: _481  and  _483
REMARK  202  A    between atoms: _483  and  _484
REMARK  203  A    between atoms: _486  and  _488
REMARK  204  A    between atoms: _488  and  _489
REMARK  205  A    between atoms: _488  and  _491
REMARK  206  A    between atoms: _491  and  _492
REMARK  207  A    between atoms: _498  and  _500
REMARK  208  A    between atoms: _500  and  _501
REMARK  209  A    between atoms: _500  and  _503
REMARK  210  A    between atoms: _503  and  _504
REMARK  211  A    between atoms: _507  and  _509
REMARK  212  A    between atoms: _509  and  _510
REMARK  213  A    between atoms: _509  and  _512
REMARK  214  A    between atoms: _515  and  _517
REMARK  215  A    between atoms: _517  and  _518
REMARK  216  A    between atoms: _517  and  _520
REMARK  217  A    between atoms: _520  and  _521
REMARK  218  A    between atoms: _525  and  _526
REMARK  219  A    between atoms: _531  and  _533
REMARK  220  A    between atoms: _533  and  _534
REMARK  221  A    between atoms: _533  and  _536
REMARK  222  A    between atoms: _536  and  _537
REMARK  223  A    between atoms: _541  and  _542
REMARK  224  A    between atoms: _547  and  _549
REMARK  225  A    between atoms: _549  and  _550
REMARK  226  A    between atoms: _549  and  _552
REMARK  227  A    between atoms: _555  and  _557
REMARK  228  A    between atoms: _557  and  _558
REMARK  229  A    between atoms: _557  and  _560
REMARK  230  A    between atoms: _560  and  _561
REMARK  231  A    between atoms: _566  and  _568
REMARK  232  A    between atoms: _568  and  _569
REMARK  233  A    between atoms: _568  and  _571
REMARK  234  A    between atoms: _571  and  _572
REMARK  235  A    between atoms: _575  and  _577
REMARK  236  A    between atoms: _577  and  _578
REMARK  237  A    between atoms: _577  and  _580
REMARK  238  A    between atoms: _580  and  _581
REMARK  239  A    between atoms: _584  and  _586
REMARK  240  A    between atoms: _586  and  _587
REMARK  241  A    between atoms: _589  and  _591
REMARK  242  A    between atoms: _591  and  _592
REMARK  243  A    between atoms: _591  and  _594
REMARK  244  A    between atoms: _594  and  _595
REMARK  245  A    between atoms: _595  and  _596
REMARK  246  A    between atoms: _596  and  _597
REMARK  247  A    between atoms: _606  and  _608
REMARK  248  A    between atoms: _608  and  _609
REMARK  249  A    between atoms: _608  and  _611
REMARK  250  A    between atoms: _611  and  _612
REMARK                            x       y       z     vdW  Elec       q    Type
REMARK                         _______ _______ _______ _____ _____    ______ ____
ROOT
ATOM      1  O   HOH     1       4.070  29.708   5.680  0.00  0.00    +0.000 OA
ENDROOT
TORSDOF 0
REMARK  Name = ../refined-set-2016/1w5x/1w5x_pocket.pdb
REMARK  250 active torsions:
REMARK  status: ('A' for Active; 'I' for Inactive)
REMARK    1  A    between atoms: _1  and  _3
REMARK    2  A    between atoms: _3  and  _4
REMARK    3  A    between atoms: _3  and  _6
REMARK    4  A    between atoms: _6  and  _7
REMARK    5  A    between atoms: _7  and  _8
REMARK    6  A    between atoms: _8  and  _9
REMARK    7  A    between atoms: _18  and  _20
REMARK    8  A    between atoms: _20  and  _21
REMARK    9  A    between atoms: _20  and  _23
REMARK   10  A    between atoms: _23  and  _24
REMARK   11  A    between atoms: _27  and  _29
REMARK   12  A    between atoms: _29  and  _30
REMARK   13  A    between atoms: _29  and  _32
REMARK   14  A    between atoms: _32  and  _33
REMARK   15  A    between atoms: _36  and  _38
REMARK   16  A    between atoms: _38  and  _39
REMARK   17  A    between atoms: _38  and  _41
REMARK   18  A    between atoms: _41  and  _42
REMARK   19  A    between atoms: _45  and  _47
REMARK   20  A    between atoms: _47  and  _48
REMARK   21  A    between atoms: _47  and  _50
REMARK   22  A    between atoms: _50  and  _51
REMARK   23  A    between atoms: _54  and  _56
REMARK   24  A    between atoms: _56  and  _57
REMARK   25  A    between atoms: _56  and  _59
REMARK   26  A    between atoms: _59  and  _60
REMARK   27  A    between atoms: _63  and  _65
REMARK   28  A    between atoms: _65  and  _66
REMARK   29  A    between atoms: _68  and  _70
REMARK   30  A    between atoms: _70  and  _71
REMARK   31  A    between atoms: _74  and  _76
REMARK   32  A    between atoms: _76  and  _77
REMARK   33  A    between atoms: _76  and  _79
REMARK   34  A    between atoms: _79  and  _80
REMARK   35  A    between atoms: _83  and  _85
REMARK   36  A    between atoms: _85  and  _86
REMARK   37  A    between atoms: _85  and  _88
REMARK   38  A    between atoms: _88  and  _89
REMARK   39  A    between atoms: _92  and  _94
REMARK   40  A    between atoms: _94  and  _95
REMARK   41  A    between atoms: _94  and  _97
REMARK   42  A    between atoms: _97  and  _98
REMARK   43  A    between atoms: _101  and  _103
REMARK   44  A    between atoms: _103  and  _104
REMARK   45  A    between atoms: _103  and  _106
REMARK   46  A    between atoms: _109  and  _111
REMARK   47  A    between atoms: _111  and  _112
REMARK   48  A    between atoms: _111  and  _114
REMARK   49  A    between atoms: _114  and  _115
REMARK   50  A    between atoms: _118  and  _120
REMARK   51  A    between atoms: _120  and  _121
REMARK   52  A    between atoms: _120  and  _123
REMARK   53  A    between atoms: _123  and  _124
REMARK   54  A    between atoms: _124  and  _125
REMARK   55  A    between atoms: _125  and  _126
REMARK   56  A    between atoms: _126  and  _127
REMARK   57  A    between atoms: _131  and  _133
REMARK   58  A    between atoms: _133  and  _134
REMARK   59  A    between atoms: _133  and  _136
REMARK   60  A    between atoms: _136  and  _137
REMARK   61  A    between atoms: _137  and  _138
REMARK   62  A    between atoms: _140  and  _142
REMARK   63  A    between atoms: _142  and  _143
REMARK   64  A    between atoms: _142  and  _145
REMARK   65  A    between atoms: _145  and  _146
REMARK   66  A    between atoms: _149  and  _151
REMARK   67  A    between atoms: _151  and  _152
REMARK   68  A    between atoms: _154  and  _156
REMARK   69  A    between atoms: _156  and  _157
REMARK   70  A    between atoms: _159  and  _161
REMARK   71  A    between atoms: _161  and  _162
REMARK   72  A    between atoms: _161  and  _164
REMARK   73  A    between atoms: _164  and  _165
REMARK   74  A    between atoms: _168  and  _170
REMARK   75  A    between atoms: _170  and  _171
REMARK   76  A    between atoms: _173  and  _175
REMARK   77  A    between atoms: _175  and  _176
REMARK   78  A    between atoms: _178  and  _180
REMARK   79  A    between atoms: _180  and  _181
REMARK   80  A    between atoms: _180  and  _183
REMARK   81  A    between atoms: _183  and  _184
REMARK   82  A    between atoms: _190  and  _192
REMARK   83  A    between atoms: _192  and  _193
REMARK   84  A    between atoms: _192  and  _195
REMARK   85  A    between atoms: _195  and  _196
REMARK   86  A    between atoms: _199  and  _201
REMARK   87  A    between atoms: _201  and  _202
REMARK   88  A    between atoms: _201  and  _204
REMARK   89  A    between atoms: _207  and  _209
REMARK   90  A    between atoms: _209  and  _210
REMARK   91  A    between atoms: _209  and  _212
REMARK   92  A    between atoms: _212  and  _213
REMARK   93  A    between atoms: _217  and  _218
REMARK   94  A    between atoms: _223  and  _225
REMARK   95  A    between atoms: _225  and  _226
REMARK   96  A    between atoms: _225  and  _228
REMARK   97  A    between atoms: _228  and  _229
REMARK   98  A    between atoms: _233  and  _234
REMARK   99  A    between atoms: _239  and  _241
REMARK  100  A    between atoms: _241  and  _242
REMARK  101  A    between atoms: _241  and  _244
REMARK  102  A    between atoms: _247  and  _249
REMARK  103  A    between atoms: _249  and  _250
REMARK  104  A    between atoms: _249  and  _252
REMARK  105  A    between atoms: _252  and  _253
REMARK  106  A    between atoms: _258  and  _260
REMARK  107  A    between atoms: _260  and  _261
REMARK  108  A    between atoms: _260  and  _263
REMARK  109  A    between atoms: _263  and  _264
REMARK  110  A    between atoms: _267  and  _269
REMARK  111  A    between atoms: _269  and  _270
REMARK  112  A    between atoms: _269  and  _272
REMARK  113  A    between atoms: _272  and  _273
REMARK  114  A    between atoms: _276  and  _278
REMARK  115  A    between atoms: _278  and  _279
REMARK  116  A    between atoms: _281  and  _283
REMARK  117  A    between atoms: _283  and  _284
REMARK  118  A    between atoms: _283  and  _286
REMARK  119  A    between atoms: _286  and  _287
REMARK  120  A    between atoms: _287  and  _288
REMARK  121  A    between atoms: _288  and  _289
REMARK  122  A    between atoms: _298  and  _300
REMARK  123  A    between atoms: _300  and  _301
REMARK  124  A    between atoms: _300  and  _303
REMARK  125  A    between atoms: _303  and  _304
REMARK  126  A    between atoms: _309  and  _311
REMARK  127  A    between atoms: _311  and  _312
REMARK  128  A    between atoms: _311  and  _314
REMARK  129  A    between atoms: _314  and  _315
REMARK  130  A    between atoms: _315  and  _316
REMARK  131  A    between atoms: _316  and  _317
REMARK  132  A    between atoms: _326  and  _328
REMARK  133  A    between atoms: _328  and  _329
REMARK  134  A    between atoms: _328  and  _331
REMARK  135  A    between atoms: _331  and  _332
REMARK  136  A    between atoms: _335  and  _337
REMARK  137  A    between atoms: _337  and  _338
REMARK  138  A    between atoms: _337  and  _340
REMARK  139  A    between atoms: _340  and  _341
REMARK  140  A    between atoms: _344  and  _346
REMARK  141  A    between atoms: _346  and  _347
REMARK  142  A    between atoms: _346  and  _349
REMARK  143  A    between atoms: _349  and  _350
REMARK  144  A    between atoms: _353  and  _355
REMARK  145  A    between atoms: _355  and  _356
REMARK  146  A    between atoms: _355  and  _358
REMARK  147  A    between atoms: _358  and  _359
REMARK  148  A    between atoms: _362  and  _364
REMARK  149  A    between atoms: _364  and  _365
REMARK  150  A    between atoms: _364  and  _367
REMARK  151  A    between atoms: _367  and  _368
REMARK  152  A    between atoms: _371  and  _373
REMARK  153  A    between atoms: _373  and  _374
REMARK  154  A    between atoms: _376  and  _378
REMARK  155  A    between atoms: _378  and  _379
REMARK  156  A    between atoms: _382  and  _384
REMARK  157  A    between atoms: _384  and  _385
REMARK  158  A    between atoms: _384  and  _387
REMARK  159  A    between atoms: _387  and  _388
REMARK  160  A    between atoms: _391  and  _393
REMARK  161  A    between atoms: _393  and  _394
REMARK  162  A    between atoms: _393  and  _396
REMARK  163  A    between atoms: _396  and  _397
REMARK  164  A    between atoms: _400  and  _402
REMARK  165  A    between atoms: _402  and  _403
REMARK  166  A    between atoms: _402  and  _405
REMARK  167  A    between atoms: _405  and  _406
REMARK  168  A    between atoms: _409  and  _411
REMARK  169  A    between atoms: _411  and  _412
REMARK  170  A    between atoms: _411  and  _414
REMARK  171  A    between atoms: _417  and  _419
REMARK  172  A    between atoms: _419  and  _420
REMARK  173  A    between atoms: _419  and  _422
REMARK  174  A    between atoms: _422  and  _423
REMARK  175  A    between atoms: _426  and  _428
REMARK  176  A    between atoms: _428  and  _429
REMARK  177  A    between atoms: _428  and  _431
REMARK  178  A    between atoms: _431  and  _432
REMARK  179  A    between atoms: _432  and  _433
REMARK  180  A    between atoms: _433  and  _434
REMARK  181  A    between atoms: _434  and  _435
REMARK  182  A    between atoms: _439  and  _441
REMARK  183  A    between atoms: _441  and  _442
REMARK  184  A    between atoms: _441  and  _444
REMARK  185  A    between atoms: _444  and  _445
REMARK  186  A    between atoms: _445  and  _446
REMARK  187  A    between atoms: _448  and  _450
REMARK  188  A    between atoms: _450  and  _451
REMARK  189  A    between atoms: _450  and  _453
REMARK  190  A    between atoms: _453  and  _454
REMARK  191  A    between atoms: _457  and  _459
REMARK  192  A    between atoms: _459  and  _460
REMARK  193  A    between atoms: _462  and  _464
REMARK  194  A    between atoms: _464  and  _465
REMARK  195  A    between atoms: _467  and  _469
REMARK  196  A    between atoms: _469  and  _470
REMARK  197  A    between atoms: _469  and  _472
REMARK  198  A    between atoms: _472  and  _473
REMARK  199  A    between atoms: _476  and  _478
REMARK  200  A    between atoms: _478  and  _479
REMARK  201  A    between atoms: _481  and  _483
REMARK  202  A    between atoms: _483  and  _484
REMARK  203  A    between atoms: _486  and  _488
REMARK  204  A    between atoms: _488  and  _489
REMARK  205  A    between atoms: _488  and  _491
REMARK  206  A    between atoms: _491  and  _492
REMARK  207  A    between atoms: _498  and  _500
REMARK  208  A    between atoms: _500  and  _501
REMARK  209  A    between atoms: _500  and  _503
REMARK  210  A    between atoms: _503  and  _504
REMARK  211  A    between atoms: _507  and  _509
REMARK  212  A    between atoms: _509  and  _510
REMARK  213  A    between atoms: _509  and  _512
REMARK  214  A    between atoms: _515  and  _517
REMARK  215  A    between atoms: _517  and  _518
REMARK  216  A    between atoms: _517  and  _520
REMARK  217  A    between atoms: _520  and  _521
REMARK  218  A    between atoms: _525  and  _526
REMARK  219  A    between atoms: _531  and  _533
REMARK  220  A    between atoms: _533  and  _534
REMARK  221  A    between atoms: _533  and  _536
REMARK  222  A    between atoms: _536  and  _537
REMARK  223  A    between atoms: _541  and  _542
REMARK  224  A    between atoms: _547  and  _549
REMARK  225  A    between atoms: _549  and  _550
REMARK  226  A    between atoms: _549  and  _552
REMARK  227  A    between atoms: _555  and  _557
REMARK  228  A    between atoms: _557  and  _558
REMARK  229  A    between atoms: _557  and  _560
REMARK  230  A    between atoms: _560  and  _561
REMARK  231  A    between atoms: _566  and  _568
REMARK  232  A    between atoms: _568  and  _569
REMARK  233  A    between atoms: _568  and  _571
REMARK  234  A    between atoms: _571  and  _572
REMARK  235  A    between atoms: _575  and  _577
REMARK  236  A    between atoms: _577  and  _578
REMARK  237  A    between atoms: _577  and  _580
REMARK  238  A    between atoms: _580  and  _581
REMARK  239  A    between atoms: _584  and  _586
REMARK  240  A    between atoms: _586  and  _587
REMARK  241  A    between atoms: _589  and  _591
REMARK  242  A    between atoms: _591  and  _592
REMARK  243  A    between atoms: _591  and  _594
REMARK  244  A    between atoms: _594  and  _595
REMARK  245  A    between atoms: _595  and  _596
REMARK  246  A    between atoms: _596  and  _597
REMARK  247  A    between atoms: _606  and  _608
REMARK  248  A    between atoms: _608  and  _609
REMARK  249  A    between atoms: _608  and  _611
REMARK  250  A    between atoms: _611  and  _612
REMARK                            x       y       z     vdW  Elec       q    Type
REMARK                         _______ _______ _______ _____ _____    ______ ____
ROOT
ATOM      1  O   HOH     1       8.203  35.509   5.625  0.00  0.00    +0.000 OA
ENDROOT
TORSDOF 0
REMARK  Name = ../refined-set-2016/1w5x/1w5x_pocket.pdb
REMARK  250 active torsions:
REMARK  status: ('A' for Active; 'I' for Inactive)
REMARK    1  A    between atoms: _1  and  _3
REMARK    2  A    between atoms: _3  and  _4
REMARK    3  A    between atoms: _3  and  _6
REMARK    4  A    between atoms: _6  and  _7
REMARK    5  A    between atoms: _7  and  _8
REMARK    6  A    between atoms: _8  and  _9
REMARK    7  A    between atoms: _18  and  _20
REMARK    8  A    between atoms: _20  and  _21
REMARK    9  A    between atoms: _20  and  _23
REMARK   10  A    between atoms: _23  and  _24
REMARK   11  A    between atoms: _27  and  _29
REMARK   12  A    between atoms: _29  and  _30
REMARK   13  A    between atoms: _29  and  _32
REMARK   14  A    between atoms: _32  and  _33
REMARK   15  A    between atoms: _36  and  _38
REMARK   16  A    between atoms: _38  and  _39
REMARK   17  A    between atoms: _38  and  _41
REMARK   18  A    between atoms: _41  and  _42
REMARK   19  A    between atoms: _45  and  _47
REMARK   20  A    between atoms: _47  and  _48
REMARK   21  A    between atoms: _47  and  _50
REMARK   22  A    between atoms: _50  and  _51
REMARK   23  A    between atoms: _54  and  _56
REMARK   24  A    between atoms: _56  and  _57
REMARK   25  A    between atoms: _56  and  _59
REMARK   26  A    between atoms: _59  and  _60
REMARK   27  A    between atoms: _63  and  _65
REMARK   28  A    between atoms: _65  and  _66
REMARK   29  A    between atoms: _68  and  _70
REMARK   30  A    between atoms: _70  and  _71
REMARK   31  A    between atoms: _74  and  _76
REMARK   32  A    between atoms: _76  and  _77
REMARK   33  A    between atoms: _76  and  _79
REMARK   34  A    between atoms: _79  and  _80
REMARK   35  A    between atoms: _83  and  _85
REMARK   36  A    between atoms: _85  and  _86
REMARK   37  A    between atoms: _85  and  _88
REMARK   38  A    between atoms: _88  and  _89
REMARK   39  A    between atoms: _92  and  _94
REMARK   40  A    between atoms: _94  and  _95
REMARK   41  A    between atoms: _94  and  _97
REMARK   42  A    between atoms: _97  and  _98
REMARK   43  A    between atoms: _101  and  _103
REMARK   44  A    between atoms: _103  and  _104
REMARK   45  A    between atoms: _103  and  _106
REMARK   46  A    between atoms: _109  and  _111
REMARK   47  A    between atoms: _111  and  _112
REMARK   48  A    between atoms: _111  and  _114
REMARK   49  A    between atoms: _114  and  _115
REMARK   50  A    between atoms: _118  and  _120
REMARK   51  A    between atoms: _120  and  _121
REMARK   52  A    between atoms: _120  and  _123
REMARK   53  A    between atoms: _123  and  _124
REMARK   54  A    between atoms: _124  and  _125
REMARK   55  A    between atoms: _125  and  _126
REMARK   56  A    between atoms: _126  and  _127
REMARK   57  A    between atoms: _131  and  _133
REMARK   58  A    between atoms: _133  and  _134
REMARK   59  A    between atoms: _133  and  _136
REMARK   60  A    between atoms: _136  and  _137
REMARK   61  A    between atoms: _137  and  _138
REMARK   62  A    between atoms: _140  and  _142
REMARK   63  A    between atoms: _142  and  _143
REMARK   64  A    between atoms: _142  and  _145
REMARK   65  A    between atoms: _145  and  _146
REMARK   66  A    between atoms: _149  and  _151
REMARK   67  A    between atoms: _151  and  _152
REMARK   68  A    between atoms: _154  and  _156
REMARK   69  A    between atoms: _156  and  _157
REMARK   70  A    between atoms: _159  and  _161
REMARK   71  A    between atoms: _161  and  _162
REMARK   72  A    between atoms: _161  and  _164
REMARK   73  A    between atoms: _164  and  _165
REMARK   74  A    between atoms: _168  and  _170
REMARK   75  A    between atoms: _170  and  _171
REMARK   76  A    between atoms: _173  and  _175
REMARK   77  A    between atoms: _175  and  _176
REMARK   78  A    between atoms: _178  and  _180
REMARK   79  A    between atoms: _180  and  _181
REMARK   80  A    between atoms: _180  and  _183
REMARK   81  A    between atoms: _183  and  _184
REMARK   82  A    between atoms: _190  and  _192
REMARK   83  A    between atoms: _192  and  _193
REMARK   84  A    between atoms: _192  and  _195
REMARK   85  A    between atoms: _195  and  _196
REMARK   86  A    between atoms: _199  and  _201
REMARK   87  A    between atoms: _201  and  _202
REMARK   88  A    between atoms: _201  and  _204
REMARK   89  A    between atoms: _207  and  _209
REMARK   90  A    between atoms: _209  and  _210
REMARK   91  A    between atoms: _209  and  _212
REMARK   92  A    between atoms: _212  and  _213
REMARK   93  A    between atoms: _217  and  _218
REMARK   94  A    between atoms: _223  and  _225
REMARK   95  A    between atoms: _225  and  _226
REMARK   96  A    between atoms: _225  and  _228
REMARK   97  A    between atoms: _228  and  _229
REMARK   98  A    between atoms: _233  and  _234
REMARK   99  A    between atoms: _239  and  _241
REMARK  100  A    between atoms: _241  and  _242
REMARK  101  A    between atoms: _241  and  _244
REMARK  102  A    between atoms: _247  and  _249
REMARK  103  A    between atoms: _249  and  _250
REMARK  104  A    between atoms: _249  and  _252
REMARK  105  A    between atoms: _252  and  _253
REMARK  106  A    between atoms: _258  and  _260
REMARK  107  A    between atoms: _260  and  _261
REMARK  108  A    between atoms: _260  and  _263
REMARK  109  A    between atoms: _263  and  _264
REMARK  110  A    between atoms: _267  and  _269
REMARK  111  A    between atoms: _269  and  _270
REMARK  112  A    between atoms: _269  and  _272
REMARK  113  A    between atoms: _272  and  _273
REMARK  114  A    between atoms: _276  and  _278
REMARK  115  A    between atoms: _278  and  _279
REMARK  116  A    between atoms: _281  and  _283
REMARK  117  A    between atoms: _283  and  _284
REMARK  118  A    between atoms: _283  and  _286
REMARK  119  A    between atoms: _286  and  _287
REMARK  120  A    between atoms: _287  and  _288
REMARK  121  A    between atoms: _288  and  _289
REMARK  122  A    between atoms: _298  and  _300
REMARK  123  A    between atoms: _300  and  _301
REMARK  124  A    between atoms: _300  and  _303
REMARK  125  A    between atoms: _303  and  _304
REMARK  126  A    between atoms: _309  and  _311
REMARK  127  A    between atoms: _311  and  _312
REMARK  128  A    between atoms: _311  and  _314
REMARK  129  A    between atoms: _314  and  _315
REMARK  130  A    between atoms: _315  and  _316
REMARK  131  A    between atoms: _316  and  _317
REMARK  132  A    between atoms: _326  and  _328
REMARK  133  A    between atoms: _328  and  _329
REMARK  134  A    between atoms: _328  and  _331
REMARK  135  A    between atoms: _331  and  _332
REMARK  136  A    between atoms: _335  and  _337
REMARK  137  A    between atoms: _337  and  _338
REMARK  138  A    between atoms: _337  and  _340
REMARK  139  A    between atoms: _340  and  _341
REMARK  140  A    between atoms: _344  and  _346
REMARK  141  A    between atoms: _346  and  _347
REMARK  142  A    between atoms: _346  and  _349
REMARK  143  A    between atoms: _349  and  _350
REMARK  144  A    between atoms: _353  and  _355
REMARK  145  A    between atoms: _355  and  _356
REMARK  146  A    between atoms: _355  and  _358
REMARK  147  A    between atoms: _358  and  _359
REMARK  148  A    between atoms: _362  and  _364
REMARK  149  A    between atoms: _364  and  _365
REMARK  150  A    between atoms: _364  and  _367
REMARK  151  A    between atoms: _367  and  _368
REMARK  152  A    between atoms: _371  and  _373
REMARK  153  A    between atoms: _373  and  _374
REMARK  154  A    between atoms: _376  and  _378
REMARK  155  A    between atoms: _378  and  _379
REMARK  156  A    between atoms: _382  and  _384
REMARK  157  A    between atoms: _384  and  _385
REMARK  158  A    between atoms: _384  and  _387
REMARK  159  A    between atoms: _387  and  _388
REMARK  160  A    between atoms: _391  and  _393
REMARK  161  A    between atoms: _393  and  _394
REMARK  162  A    between atoms: _393  and  _396
REMARK  163  A    between atoms: _396  and  _397
REMARK  164  A    between atoms: _400  and  _402
REMARK  165  A    between atoms: _402  and  _403
REMARK  166  A    between atoms: _402  and  _405
REMARK  167  A    between atoms: _405  and  _406
REMARK  168  A    between atoms: _409  and  _411
REMARK  169  A    between atoms: _411  and  _412
REMARK  170  A    between atoms: _411  and  _414
REMARK  171  A    between atoms: _417  and  _419
REMARK  172  A    between atoms: _419  and  _420
REMARK  173  A    between atoms: _419  and  _422
REMARK  174  A    between atoms: _422  and  _423
REMARK  175  A    between atoms: _426  and  _428
REMARK  176  A    between atoms: _428  and  _429
REMARK  177  A    between atoms: _428  and  _431
REMARK  178  A    between atoms: _431  and  _432
REMARK  179  A    between atoms: _432  and  _433
REMARK  180  A    between atoms: _433  and  _434
REMARK  181  A    between atoms: _434  and  _435
REMARK  182  A    between atoms: _439  and  _441
REMARK  183  A    between atoms: _441  and  _442
REMARK  184  A    between atoms: _441  and  _444
REMARK  185  A    between atoms: _444  and  _445
REMARK  186  A    between atoms: _445  and  _446
REMARK  187  A    between atoms: _448  and  _450
REMARK  188  A    between atoms: _450  and  _451
REMARK  189  A    between atoms: _450  and  _453
REMARK  190  A    between atoms: _453  and  _454
REMARK  191  A    between atoms: _457  and  _459
REMARK  192  A    between atoms: _459  and  _460
REMARK  193  A    between atoms: _462  and  _464
REMARK  194  A    between atoms: _464  and  _465
REMARK  195  A    between atoms: _467  and  _469
REMARK  196  A    between atoms: _469  and  _470
REMARK  197  A    between atoms: _469  and  _472
REMARK  198  A    between atoms: _472  and  _473
REMARK  199  A    between atoms: _476  and  _478
REMARK  200  A    between atoms: _478  and  _479
REMARK  201  A    between atoms: _481  and  _483
REMARK  202  A    between atoms: _483  and  _484
REMARK  203  A    between atoms: _486  and  _488
REMARK  204  A    between atoms: _488  and  _489
REMARK  205  A    between atoms: _488  and  _491
REMARK  206  A    between atoms: _491  and  _492
REMARK  207  A    between atoms: _498  and  _500
REMARK  208  A    between atoms: _500  and  _501
REMARK  209  A    between atoms: _500  and  _503
REMARK  210  A    between atoms: _503  and  _504
REMARK  211  A    between atoms: _507  and  _509
REMARK  212  A    between atoms: _509  and  _510
REMARK  213  A    between atoms: _509  and  _512
REMARK  214  A    between atoms: _515  and  _517
REMARK  215  A    between atoms: _517  and  _518
REMARK  216  A    between atoms: _517  and  _520
REMARK  217  A    between atoms: _520  and  _521
REMARK  218  A    between atoms: _525  and  _526
REMARK  219  A    between atoms: _531  and  _533
REMARK  220  A    between atoms: _533  and  _534
REMARK  221  A    between atoms: _533  and  _536
REMARK  222  A    between atoms: _536  and  _537
REMARK  223  A    between atoms: _541  and  _542
REMARK  224  A    between atoms: _547  and  _549
REMARK  225  A    between atoms: _549  and  _550
REMARK  226  A    between atoms: _549  and  _552
REMARK  227  A    between atoms: _555  and  _557
REMARK  228  A    between atoms: _557  and  _558
REMARK  229  A    between atoms: _557  and  _560
REMARK  230  A    between atoms: _560  and  _561
REMARK  231  A    between atoms: _566  and  _568
REMARK  232  A    between atoms: _568  and  _569
REMARK  233  A    between atoms: _568  and  _571
REMARK  234  A    between atoms: _571  and  _572
REMARK  235  A    between atoms: _575  and  _577
REMARK  236  A    between atoms: _577  and  _578
REMARK  237  A    between atoms: _577  and  _580
REMARK  238  A    between atoms: _580  and  _581
REMARK  239  A    between atoms: _584  and  _586
REMARK  240  A    between atoms: _586  and  _587
REMARK  241  A    between atoms: _589  and  _591
REMARK  242  A    between atoms: _591  and  _592
REMARK  243  A    between atoms: _591  and  _594
REMARK  244  A    between atoms: _594  and  _595
REMARK  245  A    between atoms: _595  and  _596
REMARK  246  A    between atoms: _596  and  _597
REMARK  247  A    between atoms: _606  and  _608
REMARK  248  A    between atoms: _608  and  _609
REMARK  249  A    between atoms: _608  and  _611
REMARK  250  A    between atoms: _611  and  _612
REMARK                            x       y       z     vdW  Elec       q    Type
REMARK                         _______ _______ _______ _____ _____    ______ ____
ROOT
ATOM      1  O   HOH     1       4.453  33.004   6.949  0.00  0.00    +0.000 OA
ENDROOT
TORSDOF 0
REMARK  Name = ../refined-set-2016/1w5x/1w5x_pocket.pdb
REMARK  250 active torsions:
REMARK  status: ('A' for Active; 'I' for Inactive)
REMARK    1  A    between atoms: _1  and  _3
REMARK    2  A    between atoms: _3  and  _4
REMARK    3  A    between atoms: _3  and  _6
REMARK    4  A    between atoms: _6  and  _7
REMARK    5  A    between atoms: _7  and  _8
REMARK    6  A    between atoms: _8  and  _9
REMARK    7  A    between atoms: _18  and  _20
REMARK    8  A    between atoms: _20  and  _21
REMARK    9  A    between atoms: _20  and  _23
REMARK   10  A    between atoms: _23  and  _24
REMARK   11  A    between atoms: _27  and  _29
REMARK   12  A    between atoms: _29  and  _30
REMARK   13  A    between atoms: _29  and  _32
REMARK   14  A    between atoms: _32  and  _33
REMARK   15  A    between atoms: _36  and  _38
REMARK   16  A    between atoms: _38  and  _39
REMARK   17  A    between atoms: _38  and  _41
REMARK   18  A    between atoms: _41  and  _42
REMARK   19  A    between atoms: _45  and  _47
REMARK   20  A    between atoms: _47  and  _48
REMARK   21  A    between atoms: _47  and  _50
REMARK   22  A    between atoms: _50  and  _51
REMARK   23  A    between atoms: _54  and  _56
REMARK   24  A    between atoms: _56  and  _57
REMARK   25  A    between atoms: _56  and  _59
REMARK   26  A    between atoms: _59  and  _60
REMARK   27  A    between atoms: _63  and  _65
REMARK   28  A    between atoms: _65  and  _66
REMARK   29  A    between atoms: _68  and  _70
REMARK   30  A    between atoms: _70  and  _71
REMARK   31  A    between atoms: _74  and  _76
REMARK   32  A    between atoms: _76  and  _77
REMARK   33  A    between atoms: _76  and  _79
REMARK   34  A    between atoms: _79  and  _80
REMARK   35  A    between atoms: _83  and  _85
REMARK   36  A    between atoms: _85  and  _86
REMARK   37  A    between atoms: _85  and  _88
REMARK   38  A    between atoms: _88  and  _89
REMARK   39  A    between atoms: _92  and  _94
REMARK   40  A    between atoms: _94  and  _95
REMARK   41  A    between atoms: _94  and  _97
REMARK   42  A    between atoms: _97  and  _98
REMARK   43  A    between atoms: _101  and  _103
REMARK   44  A    between atoms: _103  and  _104
REMARK   45  A    between atoms: _103  and  _106
REMARK   46  A    between atoms: _109  and  _111
REMARK   47  A    between atoms: _111  and  _112
REMARK   48  A    between atoms: _111  and  _114
REMARK   49  A    between atoms: _114  and  _115
REMARK   50  A    between atoms: _118  and  _120
REMARK   51  A    between atoms: _120  and  _121
REMARK   52  A    between atoms: _120  and  _123
REMARK   53  A    between atoms: _123  and  _124
REMARK   54  A    between atoms: _124  and  _125
REMARK   55  A    between atoms: _125  and  _126
REMARK   56  A    between atoms: _126  and  _127
REMARK   57  A    between atoms: _131  and  _133
REMARK   58  A    between atoms: _133  and  _134
REMARK   59  A    between atoms: _133  and  _136
REMARK   60  A    between atoms: _136  and  _137
REMARK   61  A    between atoms: _137  and  _138
REMARK   62  A    between atoms: _140  and  _142
REMARK   63  A    between atoms: _142  and  _143
REMARK   64  A    between atoms: _142  and  _145
REMARK   65  A    between atoms: _145  and  _146
REMARK   66  A    between atoms: _149  and  _151
REMARK   67  A    between atoms: _151  and  _152
REMARK   68  A    between atoms: _154  and  _156
REMARK   69  A    between atoms: _156  and  _157
REMARK   70  A    between atoms: _159  and  _161
REMARK   71  A    between atoms: _161  and  _162
REMARK   72  A    between atoms: _161  and  _164
REMARK   73  A    between atoms: _164  and  _165
REMARK   74  A    between atoms: _168  and  _170
REMARK   75  A    between atoms: _170  and  _171
REMARK   76  A    between atoms: _173  and  _175
REMARK   77  A    between atoms: _175  and  _176
REMARK   78  A    between atoms: _178  and  _180
REMARK   79  A    between atoms: _180  and  _181
REMARK   80  A    between atoms: _180  and  _183
REMARK   81  A    between atoms: _183  and  _184
REMARK   82  A    between atoms: _190  and  _192
REMARK   83  A    between atoms: _192  and  _193
REMARK   84  A    between atoms: _192  and  _195
REMARK   85  A    between atoms: _195  and  _196
REMARK   86  A    between atoms: _199  and  _201
REMARK   87  A    between atoms: _201  and  _202
REMARK   88  A    between atoms: _201  and  _204
REMARK   89  A    between atoms: _207  and  _209
REMARK   90  A    between atoms: _209  and  _210
REMARK   91  A    between atoms: _209  and  _212
REMARK   92  A    between atoms: _212  and  _213
REMARK   93  A    between atoms: _217  and  _218
REMARK   94  A    between atoms: _223  and  _225
REMARK   95  A    between atoms: _225  and  _226
REMARK   96  A    between atoms: _225  and  _228
REMARK   97  A    between atoms: _228  and  _229
REMARK   98  A    between atoms: _233  and  _234
REMARK   99  A    between atoms: _239  and  _241
REMARK  100  A    between atoms: _241  and  _242
REMARK  101  A    between atoms: _241  and  _244
REMARK  102  A    between atoms: _247  and  _249
REMARK  103  A    between atoms: _249  and  _250
REMARK  104  A    between atoms: _249  and  _252
REMARK  105  A    between atoms: _252  and  _253
REMARK  106  A    between atoms: _258  and  _260
REMARK  107  A    between atoms: _260  and  _261
REMARK  108  A    between atoms: _260  and  _263
REMARK  109  A    between atoms: _263  and  _264
REMARK  110  A    between atoms: _267  and  _269
REMARK  111  A    between atoms: _269  and  _270
REMARK  112  A    between atoms: _269  and  _272
REMARK  113  A    between atoms: _272  and  _273
REMARK  114  A    between atoms: _276  and  _278
REMARK  115  A    between atoms: _278  and  _279
REMARK  116  A    between atoms: _281  and  _283
REMARK  117  A    between atoms: _283  and  _284
REMARK  118  A    between atoms: _283  and  _286
REMARK  119  A    between atoms: _286  and  _287
REMARK  120  A    between atoms: _287  and  _288
REMARK  121  A    between atoms: _288  and  _289
REMARK  122  A    between atoms: _298  and  _300
REMARK  123  A    between atoms: _300  and  _301
REMARK  124  A    between atoms: _300  and  _303
REMARK  125  A    between atoms: _303  and  _304
REMARK  126  A    between atoms: _309  and  _311
REMARK  127  A    between atoms: _311  and  _312
REMARK  128  A    between atoms: _311  and  _314
REMARK  129  A    between atoms: _314  and  _315
REMARK  130  A    between atoms: _315  and  _316
REMARK  131  A    between atoms: _316  and  _317
REMARK  132  A    between atoms: _326  and  _328
REMARK  133  A    between atoms: _328  and  _329
REMARK  134  A    between atoms: _328  and  _331
REMARK  135  A    between atoms: _331  and  _332
REMARK  136  A    between atoms: _335  and  _337
REMARK  137  A    between atoms: _337  and  _338
REMARK  138  A    between atoms: _337  and  _340
REMARK  139  A    between atoms: _340  and  _341
REMARK  140  A    between atoms: _344  and  _346
REMARK  141  A    between atoms: _346  and  _347
REMARK  142  A    between atoms: _346  and  _349
REMARK  143  A    between atoms: _349  and  _350
REMARK  144  A    between atoms: _353  and  _355
REMARK  145  A    between atoms: _355  and  _356
REMARK  146  A    between atoms: _355  and  _358
REMARK  147  A    between atoms: _358  and  _359
REMARK  148  A    between atoms: _362  and  _364
REMARK  149  A    between atoms: _364  and  _365
REMARK  150  A    between atoms: _364  and  _367
REMARK  151  A    between atoms: _367  and  _368
REMARK  152  A    between atoms: _371  and  _373
REMARK  153  A    between atoms: _373  and  _374
REMARK  154  A    between atoms: _376  and  _378
REMARK  155  A    between atoms: _378  and  _379
REMARK  156  A    between atoms: _382  and  _384
REMARK  157  A    between atoms: _384  and  _385
REMARK  158  A    between atoms: _384  and  _387
REMARK  159  A    between atoms: _387  and  _388
REMARK  160  A    between atoms: _391  and  _393
REMARK  161  A    between atoms: _393  and  _394
REMARK  162  A    between atoms: _393  and  _396
REMARK  163  A    between atoms: _396  and  _397
REMARK  164  A    between atoms: _400  and  _402
REMARK  165  A    between atoms: _402  and  _403
REMARK  166  A    between atoms: _402  and  _405
REMARK  167  A    between atoms: _405  and  _406
REMARK  168  A    between atoms: _409  and  _411
REMARK  169  A    between atoms: _411  and  _412
REMARK  170  A    between atoms: _411  and  _414
REMARK  171  A    between atoms: _417  and  _419
REMARK  172  A    between atoms: _419  and  _420
REMARK  173  A    between atoms: _419  and  _422
REMARK  174  A    between atoms: _422  and  _423
REMARK  175  A    between atoms: _426  and  _428
REMARK  176  A    between atoms: _428  and  _429
REMARK  177  A    between atoms: _428  and  _431
REMARK  178  A    between atoms: _431  and  _432
REMARK  179  A    between atoms: _432  and  _433
REMARK  180  A    between atoms: _433  and  _434
REMARK  181  A    between atoms: _434  and  _435
REMARK  182  A    between atoms: _439  and  _441
REMARK  183  A    between atoms: _441  and  _442
REMARK  184  A    between atoms: _441  and  _444
REMARK  185  A    between atoms: _444  and  _445
REMARK  186  A    between atoms: _445  and  _446
REMARK  187  A    between atoms: _448  and  _450
REMARK  188  A    between atoms: _450  and  _451
REMARK  189  A    between atoms: _450  and  _453
REMARK  190  A    between atoms: _453  and  _454
REMARK  191  A    between atoms: _457  and  _459
REMARK  192  A    between atoms: _459  and  _460
REMARK  193  A    between atoms: _462  and  _464
REMARK  194  A    between atoms: _464  and  _465
REMARK  195  A    between atoms: _467  and  _469
REMARK  196  A    between atoms: _469  and  _470
REMARK  197  A    between atoms: _469  and  _472
REMARK  198  A    between atoms: _472  and  _473
REMARK  199  A    between atoms: _476  and  _478
REMARK  200  A    between atoms: _478  and  _479
REMARK  201  A    between atoms: _481  and  _483
REMARK  202  A    between atoms: _483  and  _484
REMARK  203  A    between atoms: _486  and  _488
REMARK  204  A    between atoms: _488  and  _489
REMARK  205  A    between atoms: _488  and  _491
REMARK  206  A    between atoms: _491  and  _492
REMARK  207  A    between atoms: _498  and  _500
REMARK  208  A    between atoms: _500  and  _501
REMARK  209  A    between atoms: _500  and  _503
REMARK  210  A    between atoms: _503  and  _504
REMARK  211  A    between atoms: _507  and  _509
REMARK  212  A    between atoms: _509  and  _510
REMARK  213  A    between atoms: _509  and  _512
REMARK  214  A    between atoms: _515  and  _517
REMARK  215  A    between atoms: _517  and  _518
REMARK  216  A    between atoms: _517  and  _520
REMARK  217  A    between atoms: _520  and  _521
REMARK  218  A    between atoms: _525  and  _526
REMARK  219  A    between atoms: _531  and  _533
REMARK  220  A    between atoms: _533  and  _534
REMARK  221  A    between atoms: _533  and  _536
REMARK  222  A    between atoms: _536  and  _537
REMARK  223  A    between atoms: _541  and  _542
REMARK  224  A    between atoms: _547  and  _549
REMARK  225  A    between atoms: _549  and  _550
REMARK  226  A    between atoms: _549  and  _552
REMARK  227  A    between atoms: _555  and  _557
REMARK  228  A    between atoms: _557  and  _558
REMARK  229  A    between atoms: _557  and  _560
REMARK  230  A    between atoms: _560  and  _561
REMARK  231  A    between atoms: _566  and  _568
REMARK  232  A    between atoms: _568  and  _569
REMARK  233  A    between atoms: _568  and  _571
REMARK  234  A    between atoms: _571  and  _572
REMARK  235  A    between atoms: _575  and  _577
REMARK  236  A    between atoms: _577  and  _578
REMARK  237  A    between atoms: _577  and  _580
REMARK  238  A    between atoms: _580  and  _581
REMARK  239  A    between atoms: _584  and  _586
REMARK  240  A    between atoms: _586  and  _587
REMARK  241  A    between atoms: _589  and  _591
REMARK  242  A    between atoms: _591  and  _592
REMARK  243  A    between atoms: _591  and  _594
REMARK  244  A    between atoms: _594  and  _595
REMARK  245  A    between atoms: _595  and  _596
REMARK  246  A    between atoms: _596  and  _597
REMARK  247  A    between atoms: _606  and  _608
REMARK  248  A    between atoms: _608  and  _609
REMARK  249  A    between atoms: _608  and  _611
REMARK  250  A    between atoms: _611  and  _612
REMARK                            x       y       z     vdW  Elec       q    Type
REMARK                         _______ _______ _______ _____ _____    ______ ____
ROOT
ATOM      1  O   HOH     1       4.662  24.838   4.918  0.00  0.00    +0.000 OA
ENDROOT
TORSDOF 0
REMARK  Name = ../refined-set-2016/1w5x/1w5x_pocket.pdb
REMARK  250 active torsions:
REMARK  status: ('A' for Active; 'I' for Inactive)
REMARK    1  A    between atoms: _1  and  _3
REMARK    2  A    between atoms: _3  and  _4
REMARK    3  A    between atoms: _3  and  _6
REMARK    4  A    between atoms: _6  and  _7
REMARK    5  A    between atoms: _7  and  _8
REMARK    6  A    between atoms: _8  and  _9
REMARK    7  A    between atoms: _18  and  _20
REMARK    8  A    between atoms: _20  and  _21
REMARK    9  A    between atoms: _20  and  _23
REMARK   10  A    between atoms: _23  and  _24
REMARK   11  A    between atoms: _27  and  _29
REMARK   12  A    between atoms: _29  and  _30
REMARK   13  A    between atoms: _29  and  _32
REMARK   14  A    between atoms: _32  and  _33
REMARK   15  A    between atoms: _36  and  _38
REMARK   16  A    between atoms: _38  and  _39
REMARK   17  A    between atoms: _38  and  _41
REMARK   18  A    between atoms: _41  and  _42
REMARK   19  A    between atoms: _45  and  _47
REMARK   20  A    between atoms: _47  and  _48
REMARK   21  A    between atoms: _47  and  _50
REMARK   22  A    between atoms: _50  and  _51
REMARK   23  A    between atoms: _54  and  _56
REMARK   24  A    between atoms: _56  and  _57
REMARK   25  A    between atoms: _56  and  _59
REMARK   26  A    between atoms: _59  and  _60
REMARK   27  A    between atoms: _63  and  _65
REMARK   28  A    between atoms: _65  and  _66
REMARK   29  A    between atoms: _68  and  _70
REMARK   30  A    between atoms: _70  and  _71
REMARK   31  A    between atoms: _74  and  _76
REMARK   32  A    between atoms: _76  and  _77
REMARK   33  A    between atoms: _76  and  _79
REMARK   34  A    between atoms: _79  and  _80
REMARK   35  A    between atoms: _83  and  _85
REMARK   36  A    between atoms: _85  and  _86
REMARK   37  A    between atoms: _85  and  _88
REMARK   38  A    between atoms: _88  and  _89
REMARK   39  A    between atoms: _92  and  _94
REMARK   40  A    between atoms: _94  and  _95
REMARK   41  A    between atoms: _94  and  _97
REMARK   42  A    between atoms: _97  and  _98
REMARK   43  A    between atoms: _101  and  _103
REMARK   44  A    between atoms: _103  and  _104
REMARK   45  A    between atoms: _103  and  _106
REMARK   46  A    between atoms: _109  and  _111
REMARK   47  A    between atoms: _111  and  _112
REMARK   48  A    between atoms: _111  and  _114
REMARK   49  A    between atoms: _114  and  _115
REMARK   50  A    between atoms: _118  and  _120
REMARK   51  A    between atoms: _120  and  _121
REMARK   52  A    between atoms: _120  and  _123
REMARK   53  A    between atoms: _123  and  _124
REMARK   54  A    between atoms: _124  and  _125
REMARK   55  A    between atoms: _125  and  _126
REMARK   56  A    between atoms: _126  and  _127
REMARK   57  A    between atoms: _131  and  _133
REMARK   58  A    between atoms: _133  and  _134
REMARK   59  A    between atoms: _133  and  _136
REMARK   60  A    between atoms: _136  and  _137
REMARK   61  A    between atoms: _137  and  _138
REMARK   62  A    between atoms: _140  and  _142
REMARK   63  A    between atoms: _142  and  _143
REMARK   64  A    between atoms: _142  and  _145
REMARK   65  A    between atoms: _145  and  _146
REMARK   66  A    between atoms: _149  and  _151
REMARK   67  A    between atoms: _151  and  _152
REMARK   68  A    between atoms: _154  and  _156
REMARK   69  A    between atoms: _156  and  _157
REMARK   70  A    between atoms: _159  and  _161
REMARK   71  A    between atoms: _161  and  _162
REMARK   72  A    between atoms: _161  and  _164
REMARK   73  A    between atoms: _164  and  _165
REMARK   74  A    between atoms: _168  and  _170
REMARK   75  A    between atoms: _170  and  _171
REMARK   76  A    between atoms: _173  and  _175
REMARK   77  A    between atoms: _175  and  _176
REMARK   78  A    between atoms: _178  and  _180
REMARK   79  A    between atoms: _180  and  _181
REMARK   80  A    between atoms: _180  and  _183
REMARK   81  A    between atoms: _183  and  _184
REMARK   82  A    between atoms: _190  and  _192
REMARK   83  A    between atoms: _192  and  _193
REMARK   84  A    between atoms: _192  and  _195
REMARK   85  A    between atoms: _195  and  _196
REMARK   86  A    between atoms: _199  and  _201
REMARK   87  A    between atoms: _201  and  _202
REMARK   88  A    between atoms: _201  and  _204
REMARK   89  A    between atoms: _207  and  _209
REMARK   90  A    between atoms: _209  and  _210
REMARK   91  A    between atoms: _209  and  _212
REMARK   92  A    between atoms: _212  and  _213
REMARK   93  A    between atoms: _217  and  _218
REMARK   94  A    between atoms: _223  and  _225
REMARK   95  A    between atoms: _225  and  _226
REMARK   96  A    between atoms: _225  and  _228
REMARK   97  A    between atoms: _228  and  _229
REMARK   98  A    between atoms: _233  and  _234
REMARK   99  A    between atoms: _239  and  _241
REMARK  100  A    between atoms: _241  and  _242
REMARK  101  A    between atoms: _241  and  _244
REMARK  102  A    between atoms: _247  and  _249
REMARK  103  A    between atoms: _249  and  _250
REMARK  104  A    between atoms: _249  and  _252
REMARK  105  A    between atoms: _252  and  _253
REMARK  106  A    between atoms: _258  and  _260
REMARK  107  A    between atoms: _260  and  _261
REMARK  108  A    between atoms: _260  and  _263
REMARK  109  A    between atoms: _263  and  _264
REMARK  110  A    between atoms: _267  and  _269
REMARK  111  A    between atoms: _269  and  _270
REMARK  112  A    between atoms: _269  and  _272
REMARK  113  A    between atoms: _272  and  _273
REMARK  114  A    between atoms: _276  and  _278
REMARK  115  A    between atoms: _278  and  _279
REMARK  116  A    between atoms: _281  and  _283
REMARK  117  A    between atoms: _283  and  _284
REMARK  118  A    between atoms: _283  and  _286
REMARK  119  A    between atoms: _286  and  _287
REMARK  120  A    between atoms: _287  and  _288
REMARK  121  A    between atoms: _288  and  _289
REMARK  122  A    between atoms: _298  and  _300
REMARK  123  A    between atoms: _300  and  _301
REMARK  124  A    between atoms: _300  and  _303
REMARK  125  A    between atoms: _303  and  _304
REMARK  126  A    between atoms: _309  and  _311
REMARK  127  A    between atoms: _311  and  _312
REMARK  128  A    between atoms: _311  and  _314
REMARK  129  A    between atoms: _314  and  _315
REMARK  130  A    between atoms: _315  and  _316
REMARK  131  A    between atoms: _316  and  _317
REMARK  132  A    between atoms: _326  and  _328
REMARK  133  A    between atoms: _328  and  _329
REMARK  134  A    between atoms: _328  and  _331
REMARK  135  A    between atoms: _331  and  _332
REMARK  136  A    between atoms: _335  and  _337
REMARK  137  A    between atoms: _337  and  _338
REMARK  138  A    between atoms: _337  and  _340
REMARK  139  A    between atoms: _340  and  _341
REMARK  140  A    between atoms: _344  and  _346
REMARK  141  A    between atoms: _346  and  _347
REMARK  142  A    between atoms: _346  and  _349
REMARK  143  A    between atoms: _349  and  _350
REMARK  144  A    between atoms: _353  and  _355
REMARK  145  A    between atoms: _355  and  _356
REMARK  146  A    between atoms: _355  and  _358
REMARK  147  A    between atoms: _358  and  _359
REMARK  148  A    between atoms: _362  and  _364
REMARK  149  A    between atoms: _364  and  _365
REMARK  150  A    between atoms: _364  and  _367
REMARK  151  A    between atoms: _367  and  _368
REMARK  152  A    between atoms: _371  and  _373
REMARK  153  A    between atoms: _373  and  _374
REMARK  154  A    between atoms: _376  and  _378
REMARK  155  A    between atoms: _378  and  _379
REMARK  156  A    between atoms: _382  and  _384
REMARK  157  A    between atoms: _384  and  _385
REMARK  158  A    between atoms: _384  and  _387
REMARK  159  A    between atoms: _387  and  _388
REMARK  160  A    between atoms: _391  and  _393
REMARK  161  A    between atoms: _393  and  _394
REMARK  162  A    between atoms: _393  and  _396
REMARK  163  A    between atoms: _396  and  _397
REMARK  164  A    between atoms: _400  and  _402
REMARK  165  A    between atoms: _402  and  _403
REMARK  166  A    between atoms: _402  and  _405
REMARK  167  A    between atoms: _405  and  _406
REMARK  168  A    between atoms: _409  and  _411
REMARK  169  A    between atoms: _411  and  _412
REMARK  170  A    between atoms: _411  and  _414
REMARK  171  A    between atoms: _417  and  _419
REMARK  172  A    between atoms: _419  and  _420
REMARK  173  A    between atoms: _419  and  _422
REMARK  174  A    between atoms: _422  and  _423
REMARK  175  A    between atoms: _426  and  _428
REMARK  176  A    between atoms: _428  and  _429
REMARK  177  A    between atoms: _428  and  _431
REMARK  178  A    between atoms: _431  and  _432
REMARK  179  A    between atoms: _432  and  _433
REMARK  180  A    between atoms: _433  and  _434
REMARK  181  A    between atoms: _434  and  _435
REMARK  182  A    between atoms: _439  and  _441
REMARK  183  A    between atoms: _441  and  _442
REMARK  184  A    between atoms: _441  and  _444
REMARK  185  A    between atoms: _444  and  _445
REMARK  186  A    between atoms: _445  and  _446
REMARK  187  A    between atoms: _448  and  _450
REMARK  188  A    between atoms: _450  and  _451
REMARK  189  A    between atoms: _450  and  _453
REMARK  190  A    between atoms: _453  and  _454
REMARK  191  A    between atoms: _457  and  _459
REMARK  192  A    between atoms: _459  and  _460
REMARK  193  A    between atoms: _462  and  _464
REMARK  194  A    between atoms: _464  and  _465
REMARK  195  A    between atoms: _467  and  _469
REMARK  196  A    between atoms: _469  and  _470
REMARK  197  A    between atoms: _469  and  _472
REMARK  198  A    between atoms: _472  and  _473
REMARK  199  A    between atoms: _476  and  _478
REMARK  200  A    between atoms: _478  and  _479
REMARK  201  A    between atoms: _481  and  _483
REMARK  202  A    between atoms: _483  and  _484
REMARK  203  A    between atoms: _486  and  _488
REMARK  204  A    between atoms: _488  and  _489
REMARK  205  A    between atoms: _488  and  _491
REMARK  206  A    between atoms: _491  and  _492
REMARK  207  A    between atoms: _498  and  _500
REMARK  208  A    between atoms: _500  and  _501
REMARK  209  A    between atoms: _500  and  _503
REMARK  210  A    between atoms: _503  and  _504
REMARK  211  A    between atoms: _507  and  _509
REMARK  212  A    between atoms: _509  and  _510
REMARK  213  A    between atoms: _509  and  _512
REMARK  214  A    between atoms: _515  and  _517
REMARK  215  A    between atoms: _517  and  _518
REMARK  216  A    between atoms: _517  and  _520
REMARK  217  A    between atoms: _520  and  _521
REMARK  218  A    between atoms: _525  and  _526
REMARK  219  A    between atoms: _531  and  _533
REMARK  220  A    between atoms: _533  and  _534
REMARK  221  A    between atoms: _533  and  _536
REMARK  222  A    between atoms: _536  and  _537
REMARK  223  A    between atoms: _541  and  _542
REMARK  224  A    between atoms: _547  and  _549
REMARK  225  A    between atoms: _549  and  _550
REMARK  226  A    between atoms: _549  and  _552
REMARK  227  A    between atoms: _555  and  _557
REMARK  228  A    between atoms: _557  and  _558
REMARK  229  A    between atoms: _557  and  _560
REMARK  230  A    between atoms: _560  and  _561
REMARK  231  A    between atoms: _566  and  _568
REMARK  232  A    between atoms: _568  and  _569
REMARK  233  A    between atoms: _568  and  _571
REMARK  234  A    between atoms: _571  and  _572
REMARK  235  A    between atoms: _575  and  _577
REMARK  236  A    between atoms: _577  and  _578
REMARK  237  A    between atoms: _577  and  _580
REMARK  238  A    between atoms: _580  and  _581
REMARK  239  A    between atoms: _584  and  _586
REMARK  240  A    between atoms: _586  and  _587
REMARK  241  A    between atoms: _589  and  _591
REMARK  242  A    between atoms: _591  and  _592
REMARK  243  A    between atoms: _591  and  _594
REMARK  244  A    between atoms: _594  and  _595
REMARK  245  A    between atoms: _595  and  _596
REMARK  246  A    between atoms: _596  and  _597
REMARK  247  A    between atoms: _606  and  _608
REMARK  248  A    between atoms: _608  and  _609
REMARK  249  A    between atoms: _608  and  _611
REMARK  250  A    between atoms: _611  and  _612
REMARK                            x       y       z     vdW  Elec       q    Type
REMARK                         _______ _______ _______ _____ _____    ______ ____
ROOT
ATOM      1  O   HOH     1       3.483  25.955   7.287  0.00  0.00    +0.000 OA
ENDROOT
TORSDOF 0
REMARK  Name = ../refined-set-2016/1w5x/1w5x_pocket.pdb
REMARK  250 active torsions:
REMARK  status: ('A' for Active; 'I' for Inactive)
REMARK    1  A    between atoms: _1  and  _3
REMARK    2  A    between atoms: _3  and  _4
REMARK    3  A    between atoms: _3  and  _6
REMARK    4  A    between atoms: _6  and  _7
REMARK    5  A    between atoms: _7  and  _8
REMARK    6  A    between atoms: _8  and  _9
REMARK    7  A    between atoms: _18  and  _20
REMARK    8  A    between atoms: _20  and  _21
REMARK    9  A    between atoms: _20  and  _23
REMARK   10  A    between atoms: _23  and  _24
REMARK   11  A    between atoms: _27  and  _29
REMARK   12  A    between atoms: _29  and  _30
REMARK   13  A    between atoms: _29  and  _32
REMARK   14  A    between atoms: _32  and  _33
REMARK   15  A    between atoms: _36  and  _38
REMARK   16  A    between atoms: _38  and  _39
REMARK   17  A    between atoms: _38  and  _41
REMARK   18  A    between atoms: _41  and  _42
REMARK   19  A    between atoms: _45  and  _47
REMARK   20  A    between atoms: _47  and  _48
REMARK   21  A    between atoms: _47  and  _50
REMARK   22  A    between atoms: _50  and  _51
REMARK   23  A    between atoms: _54  and  _56
REMARK   24  A    between atoms: _56  and  _57
REMARK   25  A    between atoms: _56  and  _59
REMARK   26  A    between atoms: _59  and  _60
REMARK   27  A    between atoms: _63  and  _65
REMARK   28  A    between atoms: _65  and  _66
REMARK   29  A    between atoms: _68  and  _70
REMARK   30  A    between atoms: _70  and  _71
REMARK   31  A    between atoms: _74  and  _76
REMARK   32  A    between atoms: _76  and  _77
REMARK   33  A    between atoms: _76  and  _79
REMARK   34  A    between atoms: _79  and  _80
REMARK   35  A    between atoms: _83  and  _85
REMARK   36  A    between atoms: _85  and  _86
REMARK   37  A    between atoms: _85  and  _88
REMARK   38  A    between atoms: _88  and  _89
REMARK   39  A    between atoms: _92  and  _94
REMARK   40  A    between atoms: _94  and  _95
REMARK   41  A    between atoms: _94  and  _97
REMARK   42  A    between atoms: _97  and  _98
REMARK   43  A    between atoms: _101  and  _103
REMARK   44  A    between atoms: _103  and  _104
REMARK   45  A    between atoms: _103  and  _106
REMARK   46  A    between atoms: _109  and  _111
REMARK   47  A    between atoms: _111  and  _112
REMARK   48  A    between atoms: _111  and  _114
REMARK   49  A    between atoms: _114  and  _115
REMARK   50  A    between atoms: _118  and  _120
REMARK   51  A    between atoms: _120  and  _121
REMARK   52  A    between atoms: _120  and  _123
REMARK   53  A    between atoms: _123  and  _124
REMARK   54  A    between atoms: _124  and  _125
REMARK   55  A    between atoms: _125  and  _126
REMARK   56  A    between atoms: _126  and  _127
REMARK   57  A    between atoms: _131  and  _133
REMARK   58  A    between atoms: _133  and  _134
REMARK   59  A    between atoms: _133  and  _136
REMARK   60  A    between atoms: _136  and  _137
REMARK   61  A    between atoms: _137  and  _138
REMARK   62  A    between atoms: _140  and  _142
REMARK   63  A    between atoms: _142  and  _143
REMARK   64  A    between atoms: _142  and  _145
REMARK   65  A    between atoms: _145  and  _146
REMARK   66  A    between atoms: _149  and  _151
REMARK   67  A    between atoms: _151  and  _152
REMARK   68  A    between atoms: _154  and  _156
REMARK   69  A    between atoms: _156  and  _157
REMARK   70  A    between atoms: _159  and  _161
REMARK   71  A    between atoms: _161  and  _162
REMARK   72  A    between atoms: _161  and  _164
REMARK   73  A    between atoms: _164  and  _165
REMARK   74  A    between atoms: _168  and  _170
REMARK   75  A    between atoms: _170  and  _171
REMARK   76  A    between atoms: _173  and  _175
REMARK   77  A    between atoms: _175  and  _176
REMARK   78  A    between atoms: _178  and  _180
REMARK   79  A    between atoms: _180  and  _181
REMARK   80  A    between atoms: _180  and  _183
REMARK   81  A    between atoms: _183  and  _184
REMARK   82  A    between atoms: _190  and  _192
REMARK   83  A    between atoms: _192  and  _193
REMARK   84  A    between atoms: _192  and  _195
REMARK   85  A    between atoms: _195  and  _196
REMARK   86  A    between atoms: _199  and  _201
REMARK   87  A    between atoms: _201  and  _202
REMARK   88  A    between atoms: _201  and  _204
REMARK   89  A    between atoms: _207  and  _209
REMARK   90  A    between atoms: _209  and  _210
REMARK   91  A    between atoms: _209  and  _212
REMARK   92  A    between atoms: _212  and  _213
REMARK   93  A    between atoms: _217  and  _218
REMARK   94  A    between atoms: _223  and  _225
REMARK   95  A    between atoms: _225  and  _226
REMARK   96  A    between atoms: _225  and  _228
REMARK   97  A    between atoms: _228  and  _229
REMARK   98  A    between atoms: _233  and  _234
REMARK   99  A    between atoms: _239  and  _241
REMARK  100  A    between atoms: _241  and  _242
REMARK  101  A    between atoms: _241  and  _244
REMARK  102  A    between atoms: _247  and  _249
REMARK  103  A    between atoms: _249  and  _250
REMARK  104  A    between atoms: _249  and  _252
REMARK  105  A    between atoms: _252  and  _253
REMARK  106  A    between atoms: _258  and  _260
REMARK  107  A    between atoms: _260  and  _261
REMARK  108  A    between atoms: _260  and  _263
REMARK  109  A    between atoms: _263  and  _264
REMARK  110  A    between atoms: _267  and  _269
REMARK  111  A    between atoms: _269  and  _270
REMARK  112  A    between atoms: _269  and  _272
REMARK  113  A    between atoms: _272  and  _273
REMARK  114  A    between atoms: _276  and  _278
REMARK  115  A    between atoms: _278  and  _279
REMARK  116  A    between atoms: _281  and  _283
REMARK  117  A    between atoms: _283  and  _284
REMARK  118  A    between atoms: _283  and  _286
REMARK  119  A    between atoms: _286  and  _287
REMARK  120  A    between atoms: _287  and  _288
REMARK  121  A    between atoms: _288  and  _289
REMARK  122  A    between atoms: _298  and  _300
REMARK  123  A    between atoms: _300  and  _301
REMARK  124  A    between atoms: _300  and  _303
REMARK  125  A    between atoms: _303  and  _304
REMARK  126  A    between atoms: _309  and  _311
REMARK  127  A    between atoms: _311  and  _312
REMARK  128  A    between atoms: _311  and  _314
REMARK  129  A    between atoms: _314  and  _315
REMARK  130  A    between atoms: _315  and  _316
REMARK  131  A    between atoms: _316  and  _317
REMARK  132  A    between atoms: _326  and  _328
REMARK  133  A    between atoms: _328  and  _329
REMARK  134  A    between atoms: _328  and  _331
REMARK  135  A    between atoms: _331  and  _332
REMARK  136  A    between atoms: _335  and  _337
REMARK  137  A    between atoms: _337  and  _338
REMARK  138  A    between atoms: _337  and  _340
REMARK  139  A    between atoms: _340  and  _341
REMARK  140  A    between atoms: _344  and  _346
REMARK  141  A    between atoms: _346  and  _347
REMARK  142  A    between atoms: _346  and  _349
REMARK  143  A    between atoms: _349  and  _350
REMARK  144  A    between atoms: _353  and  _355
REMARK  145  A    between atoms: _355  and  _356
REMARK  146  A    between atoms: _355  and  _358
REMARK  147  A    between atoms: _358  and  _359
REMARK  148  A    between atoms: _362  and  _364
REMARK  149  A    between atoms: _364  and  _365
REMARK  150  A    between atoms: _364  and  _367
REMARK  151  A    between atoms: _367  and  _368
REMARK  152  A    between atoms: _371  and  _373
REMARK  153  A    between atoms: _373  and  _374
REMARK  154  A    between atoms: _376  and  _378
REMARK  155  A    between atoms: _378  and  _379
REMARK  156  A    between atoms: _382  and  _384
REMARK  157  A    between atoms: _384  and  _385
REMARK  158  A    between atoms: _384  and  _387
REMARK  159  A    between atoms: _387  and  _388
REMARK  160  A    between atoms: _391  and  _393
REMARK  161  A    between atoms: _393  and  _394
REMARK  162  A    between atoms: _393  and  _396
REMARK  163  A    between atoms: _396  and  _397
REMARK  164  A    between atoms: _400  and  _402
REMARK  165  A    between atoms: _402  and  _403
REMARK  166  A    between atoms: _402  and  _405
REMARK  167  A    between atoms: _405  and  _406
REMARK  168  A    between atoms: _409  and  _411
REMARK  169  A    between atoms: _411  and  _412
REMARK  170  A    between atoms: _411  and  _414
REMARK  171  A    between atoms: _417  and  _419
REMARK  172  A    between atoms: _419  and  _420
REMARK  173  A    between atoms: _419  and  _422
REMARK  174  A    between atoms: _422  and  _423
REMARK  175  A    between atoms: _426  and  _428
REMARK  176  A    between atoms: _428  and  _429
REMARK  177  A    between atoms: _428  and  _431
REMARK  178  A    between atoms: _431  and  _432
REMARK  179  A    between atoms: _432  and  _433
REMARK  180  A    between atoms: _433  and  _434
REMARK  181  A    between atoms: _434  and  _435
REMARK  182  A    between atoms: _439  and  _441
REMARK  183  A    between atoms: _441  and  _442
REMARK  184  A    between atoms: _441  and  _444
REMARK  185  A    between atoms: _444  and  _445
REMARK  186  A    between atoms: _445  and  _446
REMARK  187  A    between atoms: _448  and  _450
REMARK  188  A    between atoms: _450  and  _451
REMARK  189  A    between atoms: _450  and  _453
REMARK  190  A    between atoms: _453  and  _454
REMARK  191  A    between atoms: _457  and  _459
REMARK  192  A    between atoms: _459  and  _460
REMARK  193  A    between atoms: _462  and  _464
REMARK  194  A    between atoms: _464  and  _465
REMARK  195  A    between atoms: _467  and  _469
REMARK  196  A    between atoms: _469  and  _470
REMARK  197  A    between atoms: _469  and  _472
REMARK  198  A    between atoms: _472  and  _473
REMARK  199  A    between atoms: _476  and  _478
REMARK  200  A    between atoms: _478  and  _479
REMARK  201  A    between atoms: _481  and  _483
REMARK  202  A    between atoms: _483  and  _484
REMARK  203  A    between atoms: _486  and  _488
REMARK  204  A    between atoms: _488  and  _489
REMARK  205  A    between atoms: _488  and  _491
REMARK  206  A    between atoms: _491  and  _492
REMARK  207  A    between atoms: _498  and  _500
REMARK  208  A    between atoms: _500  and  _501
REMARK  209  A    between atoms: _500  and  _503
REMARK  210  A    between atoms: _503  and  _504
REMARK  211  A    between atoms: _507  and  _509
REMARK  212  A    between atoms: _509  and  _510
REMARK  213  A    between atoms: _509  and  _512
REMARK  214  A    between atoms: _515  and  _517
REMARK  215  A    between atoms: _517  and  _518
REMARK  216  A    between atoms: _517  and  _520
REMARK  217  A    between atoms: _520  and  _521
REMARK  218  A    between atoms: _525  and  _526
REMARK  219  A    between atoms: _531  and  _533
REMARK  220  A    between atoms: _533  and  _534
REMARK  221  A    between atoms: _533  and  _536
REMARK  222  A    between atoms: _536  and  _537
REMARK  223  A    between atoms: _541  and  _542
REMARK  224  A    between atoms: _547  and  _549
REMARK  225  A    between atoms: _549  and  _550
REMARK  226  A    between atoms: _549  and  _552
REMARK  227  A    between atoms: _555  and  _557
REMARK  228  A    between atoms: _557  and  _558
REMARK  229  A    between atoms: _557  and  _560
REMARK  230  A    between atoms: _560  and  _561
REMARK  231  A    between atoms: _566  and  _568
REMARK  232  A    between atoms: _568  and  _569
REMARK  233  A    between atoms: _568  and  _571
REMARK  234  A    between atoms: _571  and  _572
REMARK  235  A    between atoms: _575  and  _577
REMARK  236  A    between atoms: _577  and  _578
REMARK  237  A    between atoms: _577  and  _580
REMARK  238  A    between atoms: _580  and  _581
REMARK  239  A    between atoms: _584  and  _586
REMARK  240  A    between atoms: _586  and  _587
REMARK  241  A    between atoms: _589  and  _591
REMARK  242  A    between atoms: _591  and  _592
REMARK  243  A    between atoms: _591  and  _594
REMARK  244  A    between atoms: _594  and  _595
REMARK  245  A    between atoms: _595  and  _596
REMARK  246  A    between atoms: _596  and  _597
REMARK  247  A    between atoms: _606  and  _608
REMARK  248  A    between atoms: _608  and  _609
REMARK  249  A    between atoms: _608  and  _611
REMARK  250  A    between atoms: _611  and  _612
REMARK                            x       y       z     vdW  Elec       q    Type
REMARK                         _______ _______ _______ _____ _____    ______ ____
ROOT
ATOM      1  O   HOH     1       6.814  15.813   3.532  0.00  0.00    +0.000 OA
ENDROOT
TORSDOF 0
REMARK  Name = ../refined-set-2016/1w5x/1w5x_pocket.pdb
REMARK  250 active torsions:
REMARK  status: ('A' for Active; 'I' for Inactive)
REMARK    1  A    between atoms: _1  and  _3
REMARK    2  A    between atoms: _3  and  _4
REMARK    3  A    between atoms: _3  and  _6
REMARK    4  A    between atoms: _6  and  _7
REMARK    5  A    between atoms: _7  and  _8
REMARK    6  A    between atoms: _8  and  _9
REMARK    7  A    between atoms: _18  and  _20
REMARK    8  A    between atoms: _20  and  _21
REMARK    9  A    between atoms: _20  and  _23
REMARK   10  A    between atoms: _23  and  _24
REMARK   11  A    between atoms: _27  and  _29
REMARK   12  A    between atoms: _29  and  _30
REMARK   13  A    between atoms: _29  and  _32
REMARK   14  A    between atoms: _32  and  _33
REMARK   15  A    between atoms: _36  and  _38
REMARK   16  A    between atoms: _38  and  _39
REMARK   17  A    between atoms: _38  and  _41
REMARK   18  A    between atoms: _41  and  _42
REMARK   19  A    between atoms: _45  and  _47
REMARK   20  A    between atoms: _47  and  _48
REMARK   21  A    between atoms: _47  and  _50
REMARK   22  A    between atoms: _50  and  _51
REMARK   23  A    between atoms: _54  and  _56
REMARK   24  A    between atoms: _56  and  _57
REMARK   25  A    between atoms: _56  and  _59
REMARK   26  A    between atoms: _59  and  _60
REMARK   27  A    between atoms: _63  and  _65
REMARK   28  A    between atoms: _65  and  _66
REMARK   29  A    between atoms: _68  and  _70
REMARK   30  A    between atoms: _70  and  _71
REMARK   31  A    between atoms: _74  and  _76
REMARK   32  A    between atoms: _76  and  _77
REMARK   33  A    between atoms: _76  and  _79
REMARK   34  A    between atoms: _79  and  _80
REMARK   35  A    between atoms: _83  and  _85
REMARK   36  A    between atoms: _85  and  _86
REMARK   37  A    between atoms: _85  and  _88
REMARK   38  A    between atoms: _88  and  _89
REMARK   39  A    between atoms: _92  and  _94
REMARK   40  A    between atoms: _94  and  _95
REMARK   41  A    between atoms: _94  and  _97
REMARK   42  A    between atoms: _97  and  _98
REMARK   43  A    between atoms: _101  and  _103
REMARK   44  A    between atoms: _103  and  _104
REMARK   45  A    between atoms: _103  and  _106
REMARK   46  A    between atoms: _109  and  _111
REMARK   47  A    between atoms: _111  and  _112
REMARK   48  A    between atoms: _111  and  _114
REMARK   49  A    between atoms: _114  and  _115
REMARK   50  A    between atoms: _118  and  _120
REMARK   51  A    between atoms: _120  and  _121
REMARK   52  A    between atoms: _120  and  _123
REMARK   53  A    between atoms: _123  and  _124
REMARK   54  A    between atoms: _124  and  _125
REMARK   55  A    between atoms: _125  and  _126
REMARK   56  A    between atoms: _126  and  _127
REMARK   57  A    between atoms: _131  and  _133
REMARK   58  A    between atoms: _133  and  _134
REMARK   59  A    between atoms: _133  and  _136
REMARK   60  A    between atoms: _136  and  _137
REMARK   61  A    between atoms: _137  and  _138
REMARK   62  A    between atoms: _140  and  _142
REMARK   63  A    between atoms: _142  and  _143
REMARK   64  A    between atoms: _142  and  _145
REMARK   65  A    between atoms: _145  and  _146
REMARK   66  A    between atoms: _149  and  _151
REMARK   67  A    between atoms: _151  and  _152
REMARK   68  A    between atoms: _154  and  _156
REMARK   69  A    between atoms: _156  and  _157
REMARK   70  A    between atoms: _159  and  _161
REMARK   71  A    between atoms: _161  and  _162
REMARK   72  A    between atoms: _161  and  _164
REMARK   73  A    between atoms: _164  and  _165
REMARK   74  A    between atoms: _168  and  _170
REMARK   75  A    between atoms: _170  and  _171
REMARK   76  A    between atoms: _173  and  _175
REMARK   77  A    between atoms: _175  and  _176
REMARK   78  A    between atoms: _178  and  _180
REMARK   79  A    between atoms: _180  and  _181
REMARK   80  A    between atoms: _180  and  _183
REMARK   81  A    between atoms: _183  and  _184
REMARK   82  A    between atoms: _190  and  _192
REMARK   83  A    between atoms: _192  and  _193
REMARK   84  A    between atoms: _192  and  _195
REMARK   85  A    between atoms: _195  and  _196
REMARK   86  A    between atoms: _199  and  _201
REMARK   87  A    between atoms: _201  and  _202
REMARK   88  A    between atoms: _201  and  _204
REMARK   89  A    between atoms: _207  and  _209
REMARK   90  A    between atoms: _209  and  _210
REMARK   91  A    between atoms: _209  and  _212
REMARK   92  A    between atoms: _212  and  _213
REMARK   93  A    between atoms: _217  and  _218
REMARK   94  A    between atoms: _223  and  _225
REMARK   95  A    between atoms: _225  and  _226
REMARK   96  A    between atoms: _225  and  _228
REMARK   97  A    between atoms: _228  and  _229
REMARK   98  A    between atoms: _233  and  _234
REMARK   99  A    between atoms: _239  and  _241
REMARK  100  A    between atoms: _241  and  _242
REMARK  101  A    between atoms: _241  and  _244
REMARK  102  A    between atoms: _247  and  _249
REMARK  103  A    between atoms: _249  and  _250
REMARK  104  A    between atoms: _249  and  _252
REMARK  105  A    between atoms: _252  and  _253
REMARK  106  A    between atoms: _258  and  _260
REMARK  107  A    between atoms: _260  and  _261
REMARK  108  A    between atoms: _260  and  _263
REMARK  109  A    between atoms: _263  and  _264
REMARK  110  A    between atoms: _267  and  _269
REMARK  111  A    between atoms: _269  and  _270
REMARK  112  A    between atoms: _269  and  _272
REMARK  113  A    between atoms: _272  and  _273
REMARK  114  A    between atoms: _276  and  _278
REMARK  115  A    between atoms: _278  and  _279
REMARK  116  A    between atoms: _281  and  _283
REMARK  117  A    between atoms: _283  and  _284
REMARK  118  A    between atoms: _283  and  _286
REMARK  119  A    between atoms: _286  and  _287
REMARK  120  A    between atoms: _287  and  _288
REMARK  121  A    between atoms: _288  and  _289
REMARK  122  A    between atoms: _298  and  _300
REMARK  123  A    between atoms: _300  and  _301
REMARK  124  A    between atoms: _300  and  _303
REMARK  125  A    between atoms: _303  and  _304
REMARK  126  A    between atoms: _309  and  _311
REMARK  127  A    between atoms: _311  and  _312
REMARK  128  A    between atoms: _311  and  _314
REMARK  129  A    between atoms: _314  and  _315
REMARK  130  A    between atoms: _315  and  _316
REMARK  131  A    between atoms: _316  and  _317
REMARK  132  A    between atoms: _326  and  _328
REMARK  133  A    between atoms: _328  and  _329
REMARK  134  A    between atoms: _328  and  _331
REMARK  135  A    between atoms: _331  and  _332
REMARK  136  A    between atoms: _335  and  _337
REMARK  137  A    between atoms: _337  and  _338
REMARK  138  A    between atoms: _337  and  _340
REMARK  139  A    between atoms: _340  and  _341
REMARK  140  A    between atoms: _344  and  _346
REMARK  141  A    between atoms: _346  and  _347
REMARK  142  A    between atoms: _346  and  _349
REMARK  143  A    between atoms: _349  and  _350
REMARK  144  A    between atoms: _353  and  _355
REMARK  145  A    between atoms: _355  and  _356
REMARK  146  A    between atoms: _355  and  _358
REMARK  147  A    between atoms: _358  and  _359
REMARK  148  A    between atoms: _362  and  _364
REMARK  149  A    between atoms: _364  and  _365
REMARK  150  A    between atoms: _364  and  _367
REMARK  151  A    between atoms: _367  and  _368
REMARK  152  A    between atoms: _371  and  _373
REMARK  153  A    between atoms: _373  and  _374
REMARK  154  A    between atoms: _376  and  _378
REMARK  155  A    between atoms: _378  and  _379
REMARK  156  A    between atoms: _382  and  _384
REMARK  157  A    between atoms: _384  and  _385
REMARK  158  A    between atoms: _384  and  _387
REMARK  159  A    between atoms: _387  and  _388
REMARK  160  A    between atoms: _391  and  _393
REMARK  161  A    between atoms: _393  and  _394
REMARK  162  A    between atoms: _393  and  _396
REMARK  163  A    between atoms: _396  and  _397
REMARK  164  A    between atoms: _400  and  _402
REMARK  165  A    between atoms: _402  and  _403
REMARK  166  A    between atoms: _402  and  _405
REMARK  167  A    between atoms: _405  and  _406
REMARK  168  A    between atoms: _409  and  _411
REMARK  169  A    between atoms: _411  and  _412
REMARK  170  A    between atoms: _411  and  _414
REMARK  171  A    between atoms: _417  and  _419
REMARK  172  A    between atoms: _419  and  _420
REMARK  173  A    between atoms: _419  and  _422
REMARK  174  A    between atoms: _422  and  _423
REMARK  175  A    between atoms: _426  and  _428
REMARK  176  A    between atoms: _428  and  _429
REMARK  177  A    between atoms: _428  and  _431
REMARK  178  A    between atoms: _431  and  _432
REMARK  179  A    between atoms: _432  and  _433
REMARK  180  A    between atoms: _433  and  _434
REMARK  181  A    between atoms: _434  and  _435
REMARK  182  A    between atoms: _439  and  _441
REMARK  183  A    between atoms: _441  and  _442
REMARK  184  A    between atoms: _441  and  _444
REMARK  185  A    between atoms: _444  and  _445
REMARK  186  A    between atoms: _445  and  _446
REMARK  187  A    between atoms: _448  and  _450
REMARK  188  A    between atoms: _450  and  _451
REMARK  189  A    between atoms: _450  and  _453
REMARK  190  A    between atoms: _453  and  _454
REMARK  191  A    between atoms: _457  and  _459
REMARK  192  A    between atoms: _459  and  _460
REMARK  193  A    between atoms: _462  and  _464
REMARK  194  A    between atoms: _464  and  _465
REMARK  195  A    between atoms: _467  and  _469
REMARK  196  A    between atoms: _469  and  _470
REMARK  197  A    between atoms: _469  and  _472
REMARK  198  A    between atoms: _472  and  _473
REMARK  199  A    between atoms: _476  and  _478
REMARK  200  A    between atoms: _478  and  _479
REMARK  201  A    between atoms: _481  and  _483
REMARK  202  A    between atoms: _483  and  _484
REMARK  203  A    between atoms: _486  and  _488
REMARK  204  A    between atoms: _488  and  _489
REMARK  205  A    between atoms: _488  and  _491
REMARK  206  A    between atoms: _491  and  _492
REMARK  207  A    between atoms: _498  and  _500
REMARK  208  A    between atoms: _500  and  _501
REMARK  209  A    between atoms: _500  and  _503
REMARK  210  A    between atoms: _503  and  _504
REMARK  211  A    between atoms: _507  and  _509
REMARK  212  A    between atoms: _509  and  _510
REMARK  213  A    between atoms: _509  and  _512
REMARK  214  A    between atoms: _515  and  _517
REMARK  215  A    between atoms: _517  and  _518
REMARK  216  A    between atoms: _517  and  _520
REMARK  217  A    between atoms: _520  and  _521
REMARK  218  A    between atoms: _525  and  _526
REMARK  219  A    between atoms: _531  and  _533
REMARK  220  A    between atoms: _533  and  _534
REMARK  221  A    between atoms: _533  and  _536
REMARK  222  A    between atoms: _536  and  _537
REMARK  223  A    between atoms: _541  and  _542
REMARK  224  A    between atoms: _547  and  _549
REMARK  225  A    between atoms: _549  and  _550
REMARK  226  A    between atoms: _549  and  _552
REMARK  227  A    between atoms: _555  and  _557
REMARK  228  A    between atoms: _557  and  _558
REMARK  229  A    between atoms: _557  and  _560
REMARK  230  A    between atoms: _560  and  _561
REMARK  231  A    between atoms: _566  and  _568
REMARK  232  A    between atoms: _568  and  _569
REMARK  233  A    between atoms: _568  and  _571
REMARK  234  A    between atoms: _571  and  _572
REMARK  235  A    between atoms: _575  and  _577
REMARK  236  A    between atoms: _577  and  _578
REMARK  237  A    between atoms: _577  and  _580
REMARK  238  A    between atoms: _580  and  _581
REMARK  239  A    between atoms: _584  and  _586
REMARK  240  A    between atoms: _586  and  _587
REMARK  241  A    between atoms: _589  and  _591
REMARK  242  A    between atoms: _591  and  _592
REMARK  243  A    between atoms: _591  and  _594
REMARK  244  A    between atoms: _594  and  _595
REMARK  245  A    between atoms: _595  and  _596
REMARK  246  A    between atoms: _596  and  _597
REMARK  247  A    between atoms: _606  and  _608
REMARK  248  A    between atoms: _608  and  _609
REMARK  249  A    between atoms: _608  and  _611
REMARK  250  A    between atoms: _611  and  _612
REMARK                            x       y       z     vdW  Elec       q    Type
REMARK                         _______ _______ _______ _____ _____    ______ ____
ROOT
ATOM      1  O   HOH     1       8.665  33.446  12.548  0.00  0.00    +0.000 OA
ENDROOT
TORSDOF 0
REMARK  Name = ../refined-set-2016/1w5x/1w5x_pocket.pdb
REMARK  250 active torsions:
REMARK  status: ('A' for Active; 'I' for Inactive)
REMARK    1  A    between atoms: _1  and  _3
REMARK    2  A    between atoms: _3  and  _4
REMARK    3  A    between atoms: _3  and  _6
REMARK    4  A    between atoms: _6  and  _7
REMARK    5  A    between atoms: _7  and  _8
REMARK    6  A    between atoms: _8  and  _9
REMARK    7  A    between atoms: _18  and  _20
REMARK    8  A    between atoms: _20  and  _21
REMARK    9  A    between atoms: _20  and  _23
REMARK   10  A    between atoms: _23  and  _24
REMARK   11  A    between atoms: _27  and  _29
REMARK   12  A    between atoms: _29  and  _30
REMARK   13  A    between atoms: _29  and  _32
REMARK   14  A    between atoms: _32  and  _33
REMARK   15  A    between atoms: _36  and  _38
REMARK   16  A    between atoms: _38  and  _39
REMARK   17  A    between atoms: _38  and  _41
REMARK   18  A    between atoms: _41  and  _42
REMARK   19  A    between atoms: _45  and  _47
REMARK   20  A    between atoms: _47  and  _48
REMARK   21  A    between atoms: _47  and  _50
REMARK   22  A    between atoms: _50  and  _51
REMARK   23  A    between atoms: _54  and  _56
REMARK   24  A    between atoms: _56  and  _57
REMARK   25  A    between atoms: _56  and  _59
REMARK   26  A    between atoms: _59  and  _60
REMARK   27  A    between atoms: _63  and  _65
REMARK   28  A    between atoms: _65  and  _66
REMARK   29  A    between atoms: _68  and  _70
REMARK   30  A    between atoms: _70  and  _71
REMARK   31  A    between atoms: _74  and  _76
REMARK   32  A    between atoms: _76  and  _77
REMARK   33  A    between atoms: _76  and  _79
REMARK   34  A    between atoms: _79  and  _80
REMARK   35  A    between atoms: _83  and  _85
REMARK   36  A    between atoms: _85  and  _86
REMARK   37  A    between atoms: _85  and  _88
REMARK   38  A    between atoms: _88  and  _89
REMARK   39  A    between atoms: _92  and  _94
REMARK   40  A    between atoms: _94  and  _95
REMARK   41  A    between atoms: _94  and  _97
REMARK   42  A    between atoms: _97  and  _98
REMARK   43  A    between atoms: _101  and  _103
REMARK   44  A    between atoms: _103  and  _104
REMARK   45  A    between atoms: _103  and  _106
REMARK   46  A    between atoms: _109  and  _111
REMARK   47  A    between atoms: _111  and  _112
REMARK   48  A    between atoms: _111  and  _114
REMARK   49  A    between atoms: _114  and  _115
REMARK   50  A    between atoms: _118  and  _120
REMARK   51  A    between atoms: _120  and  _121
REMARK   52  A    between atoms: _120  and  _123
REMARK   53  A    between atoms: _123  and  _124
REMARK   54  A    between atoms: _124  and  _125
REMARK   55  A    between atoms: _125  and  _126
REMARK   56  A    between atoms: _126  and  _127
REMARK   57  A    between atoms: _131  and  _133
REMARK   58  A    between atoms: _133  and  _134
REMARK   59  A    between atoms: _133  and  _136
REMARK   60  A    between atoms: _136  and  _137
REMARK   61  A    between atoms: _137  and  _138
REMARK   62  A    between atoms: _140  and  _142
REMARK   63  A    between atoms: _142  and  _143
REMARK   64  A    between atoms: _142  and  _145
REMARK   65  A    between atoms: _145  and  _146
REMARK   66  A    between atoms: _149  and  _151
REMARK   67  A    between atoms: _151  and  _152
REMARK   68  A    between atoms: _154  and  _156
REMARK   69  A    between atoms: _156  and  _157
REMARK   70  A    between atoms: _159  and  _161
REMARK   71  A    between atoms: _161  and  _162
REMARK   72  A    between atoms: _161  and  _164
REMARK   73  A    between atoms: _164  and  _165
REMARK   74  A    between atoms: _168  and  _170
REMARK   75  A    between atoms: _170  and  _171
REMARK   76  A    between atoms: _173  and  _175
REMARK   77  A    between atoms: _175  and  _176
REMARK   78  A    between atoms: _178  and  _180
REMARK   79  A    between atoms: _180  and  _181
REMARK   80  A    between atoms: _180  and  _183
REMARK   81  A    between atoms: _183  and  _184
REMARK   82  A    between atoms: _190  and  _192
REMARK   83  A    between atoms: _192  and  _193
REMARK   84  A    between atoms: _192  and  _195
REMARK   85  A    between atoms: _195  and  _196
REMARK   86  A    between atoms: _199  and  _201
REMARK   87  A    between atoms: _201  and  _202
REMARK   88  A    between atoms: _201  and  _204
REMARK   89  A    between atoms: _207  and  _209
REMARK   90  A    between atoms: _209  and  _210
REMARK   91  A    between atoms: _209  and  _212
REMARK   92  A    between atoms: _212  and  _213
REMARK   93  A    between atoms: _217  and  _218
REMARK   94  A    between atoms: _223  and  _225
REMARK   95  A    between atoms: _225  and  _226
REMARK   96  A    between atoms: _225  and  _228
REMARK   97  A    between atoms: _228  and  _229
REMARK   98  A    between atoms: _233  and  _234
REMARK   99  A    between atoms: _239  and  _241
REMARK  100  A    between atoms: _241  and  _242
REMARK  101  A    between atoms: _241  and  _244
REMARK  102  A    between atoms: _247  and  _249
REMARK  103  A    between atoms: _249  and  _250
REMARK  104  A    between atoms: _249  and  _252
REMARK  105  A    between atoms: _252  and  _253
REMARK  106  A    between atoms: _258  and  _260
REMARK  107  A    between atoms: _260  and  _261
REMARK  108  A    between atoms: _260  and  _263
REMARK  109  A    between atoms: _263  and  _264
REMARK  110  A    between atoms: _267  and  _269
REMARK  111  A    between atoms: _269  and  _270
REMARK  112  A    between atoms: _269  and  _272
REMARK  113  A    between atoms: _272  and  _273
REMARK  114  A    between atoms: _276  and  _278
REMARK  115  A    between atoms: _278  and  _279
REMARK  116  A    between atoms: _281  and  _283
REMARK  117  A    between atoms: _283  and  _284
REMARK  118  A    between atoms: _283  and  _286
REMARK  119  A    between atoms: _286  and  _287
REMARK  120  A    between atoms: _287  and  _288
REMARK  121  A    between atoms: _288  and  _289
REMARK  122  A    between atoms: _298  and  _300
REMARK  123  A    between atoms: _300  and  _301
REMARK  124  A    between atoms: _300  and  _303
REMARK  125  A    between atoms: _303  and  _304
REMARK  126  A    between atoms: _309  and  _311
REMARK  127  A    between atoms: _311  and  _312
REMARK  128  A    between atoms: _311  and  _314
REMARK  129  A    between atoms: _314  and  _315
REMARK  130  A    between atoms: _315  and  _316
REMARK  131  A    between atoms: _316  and  _317
REMARK  132  A    between atoms: _326  and  _328
REMARK  133  A    between atoms: _328  and  _329
REMARK  134  A    between atoms: _328  and  _331
REMARK  135  A    between atoms: _331  and  _332
REMARK  136  A    between atoms: _335  and  _337
REMARK  137  A    between atoms: _337  and  _338
REMARK  138  A    between atoms: _337  and  _340
REMARK  139  A    between atoms: _340  and  _341
REMARK  140  A    between atoms: _344  and  _346
REMARK  141  A    between atoms: _346  and  _347
REMARK  142  A    between atoms: _346  and  _349
REMARK  143  A    between atoms: _349  and  _350
REMARK  144  A    between atoms: _353  and  _355
REMARK  145  A    between atoms: _355  and  _356
REMARK  146  A    between atoms: _355  and  _358
REMARK  147  A    between atoms: _358  and  _359
REMARK  148  A    between atoms: _362  and  _364
REMARK  149  A    between atoms: _364  and  _365
REMARK  150  A    between atoms: _364  and  _367
REMARK  151  A    between atoms: _367  and  _368
REMARK  152  A    between atoms: _371  and  _373
REMARK  153  A    between atoms: _373  and  _374
REMARK  154  A    between atoms: _376  and  _378
REMARK  155  A    between atoms: _378  and  _379
REMARK  156  A    between atoms: _382  and  _384
REMARK  157  A    between atoms: _384  and  _385
REMARK  158  A    between atoms: _384  and  _387
REMARK  159  A    between atoms: _387  and  _388
REMARK  160  A    between atoms: _391  and  _393
REMARK  161  A    between atoms: _393  and  _394
REMARK  162  A    between atoms: _393  and  _396
REMARK  163  A    between atoms: _396  and  _397
REMARK  164  A    between atoms: _400  and  _402
REMARK  165  A    between atoms: _402  and  _403
REMARK  166  A    between atoms: _402  and  _405
REMARK  167  A    between atoms: _405  and  _406
REMARK  168  A    between atoms: _409  and  _411
REMARK  169  A    between atoms: _411  and  _412
REMARK  170  A    between atoms: _411  and  _414
REMARK  171  A    between atoms: _417  and  _419
REMARK  172  A    between atoms: _419  and  _420
REMARK  173  A    between atoms: _419  and  _422
REMARK  174  A    between atoms: _422  and  _423
REMARK  175  A    between atoms: _426  and  _428
REMARK  176  A    between atoms: _428  and  _429
REMARK  177  A    between atoms: _428  and  _431
REMARK  178  A    between atoms: _431  and  _432
REMARK  179  A    between atoms: _432  and  _433
REMARK  180  A    between atoms: _433  and  _434
REMARK  181  A    between atoms: _434  and  _435
REMARK  182  A    between atoms: _439  and  _441
REMARK  183  A    between atoms: _441  and  _442
REMARK  184  A    between atoms: _441  and  _444
REMARK  185  A    between atoms: _444  and  _445
REMARK  186  A    between atoms: _445  and  _446
REMARK  187  A    between atoms: _448  and  _450
REMARK  188  A    between atoms: _450  and  _451
REMARK  189  A    between atoms: _450  and  _453
REMARK  190  A    between atoms: _453  and  _454
REMARK  191  A    between atoms: _457  and  _459
REMARK  192  A    between atoms: _459  and  _460
REMARK  193  A    between atoms: _462  and  _464
REMARK  194  A    between atoms: _464  and  _465
REMARK  195  A    between atoms: _467  and  _469
REMARK  196  A    between atoms: _469  and  _470
REMARK  197  A    between atoms: _469  and  _472
REMARK  198  A    between atoms: _472  and  _473
REMARK  199  A    between atoms: _476  and  _478
REMARK  200  A    between atoms: _478  and  _479
REMARK  201  A    between atoms: _481  and  _483
REMARK  202  A    between atoms: _483  and  _484
REMARK  203  A    between atoms: _486  and  _488
REMARK  204  A    between atoms: _488  and  _489
REMARK  205  A    between atoms: _488  and  _491
REMARK  206  A    between atoms: _491  and  _492
REMARK  207  A    between atoms: _498  and  _500
REMARK  208  A    between atoms: _500  and  _501
REMARK  209  A    between atoms: _500  and  _503
REMARK  210  A    between atoms: _503  and  _504
REMARK  211  A    between atoms: _507  and  _509
REMARK  212  A    between atoms: _509  and  _510
REMARK  213  A    between atoms: _509  and  _512
REMARK  214  A    between atoms: _515  and  _517
REMARK  215  A    between atoms: _517  and  _518
REMARK  216  A    between atoms: _517  and  _520
REMARK  217  A    between atoms: _520  and  _521
REMARK  218  A    between atoms: _525  and  _526
REMARK  219  A    between atoms: _531  and  _533
REMARK  220  A    between atoms: _533  and  _534
REMARK  221  A    between atoms: _533  and  _536
REMARK  222  A    between atoms: _536  and  _537
REMARK  223  A    between atoms: _541  and  _542
REMARK  224  A    between atoms: _547  and  _549
REMARK  225  A    between atoms: _549  and  _550
REMARK  226  A    between atoms: _549  and  _552
REMARK  227  A    between atoms: _555  and  _557
REMARK  228  A    between atoms: _557  and  _558
REMARK  229  A    between atoms: _557  and  _560
REMARK  230  A    between atoms: _560  and  _561
REMARK  231  A    between atoms: _566  and  _568
REMARK  232  A    between atoms: _568  and  _569
REMARK  233  A    between atoms: _568  and  _571
REMARK  234  A    between atoms: _571  and  _572
REMARK  235  A    between atoms: _575  and  _577
REMARK  236  A    between atoms: _577  and  _578
REMARK  237  A    between atoms: _577  and  _580
REMARK  238  A    between atoms: _580  and  _581
REMARK  239  A    between atoms: _584  and  _586
REMARK  240  A    between atoms: _586  and  _587
REMARK  241  A    between atoms: _589  and  _591
REMARK  242  A    between atoms: _591  and  _592
REMARK  243  A    between atoms: _591  and  _594
REMARK  244  A    between atoms: _594  and  _595
REMARK  245  A    between atoms: _595  and  _596
REMARK  246  A    between atoms: _596  and  _597
REMARK  247  A    between atoms: _606  and  _608
REMARK  248  A    between atoms: _608  and  _609
REMARK  249  A    between atoms: _608  and  _611
REMARK  250  A    between atoms: _611  and  _612
REMARK                            x       y       z     vdW  Elec       q    Type
REMARK                         _______ _______ _______ _____ _____    ______ ____
ROOT
ATOM      1  O   HOH     1      11.417  20.830   6.529  0.00  0.00    +0.000 OA
ENDROOT
TORSDOF 0
REMARK  Name = ../refined-set-2016/1w5x/1w5x_pocket.pdb
REMARK  250 active torsions:
REMARK  status: ('A' for Active; 'I' for Inactive)
REMARK    1  A    between atoms: _1  and  _3
REMARK    2  A    between atoms: _3  and  _4
REMARK    3  A    between atoms: _3  and  _6
REMARK    4  A    between atoms: _6  and  _7
REMARK    5  A    between atoms: _7  and  _8
REMARK    6  A    between atoms: _8  and  _9
REMARK    7  A    between atoms: _18  and  _20
REMARK    8  A    between atoms: _20  and  _21
REMARK    9  A    between atoms: _20  and  _23
REMARK   10  A    between atoms: _23  and  _24
REMARK   11  A    between atoms: _27  and  _29
REMARK   12  A    between atoms: _29  and  _30
REMARK   13  A    between atoms: _29  and  _32
REMARK   14  A    between atoms: _32  and  _33
REMARK   15  A    between atoms: _36  and  _38
REMARK   16  A    between atoms: _38  and  _39
REMARK   17  A    between atoms: _38  and  _41
REMARK   18  A    between atoms: _41  and  _42
REMARK   19  A    between atoms: _45  and  _47
REMARK   20  A    between atoms: _47  and  _48
REMARK   21  A    between atoms: _47  and  _50
REMARK   22  A    between atoms: _50  and  _51
REMARK   23  A    between atoms: _54  and  _56
REMARK   24  A    between atoms: _56  and  _57
REMARK   25  A    between atoms: _56  and  _59
REMARK   26  A    between atoms: _59  and  _60
REMARK   27  A    between atoms: _63  and  _65
REMARK   28  A    between atoms: _65  and  _66
REMARK   29  A    between atoms: _68  and  _70
REMARK   30  A    between atoms: _70  and  _71
REMARK   31  A    between atoms: _74  and  _76
REMARK   32  A    between atoms: _76  and  _77
REMARK   33  A    between atoms: _76  and  _79
REMARK   34  A    between atoms: _79  and  _80
REMARK   35  A    between atoms: _83  and  _85
REMARK   36  A    between atoms: _85  and  _86
REMARK   37  A    between atoms: _85  and  _88
REMARK   38  A    between atoms: _88  and  _89
REMARK   39  A    between atoms: _92  and  _94
REMARK   40  A    between atoms: _94  and  _95
REMARK   41  A    between atoms: _94  and  _97
REMARK   42  A    between atoms: _97  and  _98
REMARK   43  A    between atoms: _101  and  _103
REMARK   44  A    between atoms: _103  and  _104
REMARK   45  A    between atoms: _103  and  _106
REMARK   46  A    between atoms: _109  and  _111
REMARK   47  A    between atoms: _111  and  _112
REMARK   48  A    between atoms: _111  and  _114
REMARK   49  A    between atoms: _114  and  _115
REMARK   50  A    between atoms: _118  and  _120
REMARK   51  A    between atoms: _120  and  _121
REMARK   52  A    between atoms: _120  and  _123
REMARK   53  A    between atoms: _123  and  _124
REMARK   54  A    between atoms: _124  and  _125
REMARK   55  A    between atoms: _125  and  _126
REMARK   56  A    between atoms: _126  and  _127
REMARK   57  A    between atoms: _131  and  _133
REMARK   58  A    between atoms: _133  and  _134
REMARK   59  A    between atoms: _133  and  _136
REMARK   60  A    between atoms: _136  and  _137
REMARK   61  A    between atoms: _137  and  _138
REMARK   62  A    between atoms: _140  and  _142
REMARK   63  A    between atoms: _142  and  _143
REMARK   64  A    between atoms: _142  and  _145
REMARK   65  A    between atoms: _145  and  _146
REMARK   66  A    between atoms: _149  and  _151
REMARK   67  A    between atoms: _151  and  _152
REMARK   68  A    between atoms: _154  and  _156
REMARK   69  A    between atoms: _156  and  _157
REMARK   70  A    between atoms: _159  and  _161
REMARK   71  A    between atoms: _161  and  _162
REMARK   72  A    between atoms: _161  and  _164
REMARK   73  A    between atoms: _164  and  _165
REMARK   74  A    between atoms: _168  and  _170
REMARK   75  A    between atoms: _170  and  _171
REMARK   76  A    between atoms: _173  and  _175
REMARK   77  A    between atoms: _175  and  _176
REMARK   78  A    between atoms: _178  and  _180
REMARK   79  A    between atoms: _180  and  _181
REMARK   80  A    between atoms: _180  and  _183
REMARK   81  A    between atoms: _183  and  _184
REMARK   82  A    between atoms: _190  and  _192
REMARK   83  A    between atoms: _192  and  _193
REMARK   84  A    between atoms: _192  and  _195
REMARK   85  A    between atoms: _195  and  _196
REMARK   86  A    between atoms: _199  and  _201
REMARK   87  A    between atoms: _201  and  _202
REMARK   88  A    between atoms: _201  and  _204
REMARK   89  A    between atoms: _207  and  _209
REMARK   90  A    between atoms: _209  and  _210
REMARK   91  A    between atoms: _209  and  _212
REMARK   92  A    between atoms: _212  and  _213
REMARK   93  A    between atoms: _217  and  _218
REMARK   94  A    between atoms: _223  and  _225
REMARK   95  A    between atoms: _225  and  _226
REMARK   96  A    between atoms: _225  and  _228
REMARK   97  A    between atoms: _228  and  _229
REMARK   98  A    between atoms: _233  and  _234
REMARK   99  A    between atoms: _239  and  _241
REMARK  100  A    between atoms: _241  and  _242
REMARK  101  A    between atoms: _241  and  _244
REMARK  102  A    between atoms: _247  and  _249
REMARK  103  A    between atoms: _249  and  _250
REMARK  104  A    between atoms: _249  and  _252
REMARK  105  A    between atoms: _252  and  _253
REMARK  106  A    between atoms: _258  and  _260
REMARK  107  A    between atoms: _260  and  _261
REMARK  108  A    between atoms: _260  and  _263
REMARK  109  A    between atoms: _263  and  _264
REMARK  110  A    between atoms: _267  and  _269
REMARK  111  A    between atoms: _269  and  _270
REMARK  112  A    between atoms: _269  and  _272
REMARK  113  A    between atoms: _272  and  _273
REMARK  114  A    between atoms: _276  and  _278
REMARK  115  A    between atoms: _278  and  _279
REMARK  116  A    between atoms: _281  and  _283
REMARK  117  A    between atoms: _283  and  _284
REMARK  118  A    between atoms: _283  and  _286
REMARK  119  A    between atoms: _286  and  _287
REMARK  120  A    between atoms: _287  and  _288
REMARK  121  A    between atoms: _288  and  _289
REMARK  122  A    between atoms: _298  and  _300
REMARK  123  A    between atoms: _300  and  _301
REMARK  124  A    between atoms: _300  and  _303
REMARK  125  A    between atoms: _303  and  _304
REMARK  126  A    between atoms: _309  and  _311
REMARK  127  A    between atoms: _311  and  _312
REMARK  128  A    between atoms: _311  and  _314
REMARK  129  A    between atoms: _314  and  _315
REMARK  130  A    between atoms: _315  and  _316
REMARK  131  A    between atoms: _316  and  _317
REMARK  132  A    between atoms: _326  and  _328
REMARK  133  A    between atoms: _328  and  _329
REMARK  134  A    between atoms: _328  and  _331
REMARK  135  A    between atoms: _331  and  _332
REMARK  136  A    between atoms: _335  and  _337
REMARK  137  A    between atoms: _337  and  _338
REMARK  138  A    between atoms: _337  and  _340
REMARK  139  A    between atoms: _340  and  _341
REMARK  140  A    between atoms: _344  and  _346
REMARK  141  A    between atoms: _346  and  _347
REMARK  142  A    between atoms: _346  and  _349
REMARK  143  A    between atoms: _349  and  _350
REMARK  144  A    between atoms: _353  and  _355
REMARK  145  A    between atoms: _355  and  _356
REMARK  146  A    between atoms: _355  and  _358
REMARK  147  A    between atoms: _358  and  _359
REMARK  148  A    between atoms: _362  and  _364
REMARK  149  A    between atoms: _364  and  _365
REMARK  150  A    between atoms: _364  and  _367
REMARK  151  A    between atoms: _367  and  _368
REMARK  152  A    between atoms: _371  and  _373
REMARK  153  A    between atoms: _373  and  _374
REMARK  154  A    between atoms: _376  and  _378
REMARK  155  A    between atoms: _378  and  _379
REMARK  156  A    between atoms: _382  and  _384
REMARK  157  A    between atoms: _384  and  _385
REMARK  158  A    between atoms: _384  and  _387
REMARK  159  A    between atoms: _387  and  _388
REMARK  160  A    between atoms: _391  and  _393
REMARK  161  A    between atoms: _393  and  _394
REMARK  162  A    between atoms: _393  and  _396
REMARK  163  A    between atoms: _396  and  _397
REMARK  164  A    between atoms: _400  and  _402
REMARK  165  A    between atoms: _402  and  _403
REMARK  166  A    between atoms: _402  and  _405
REMARK  167  A    between atoms: _405  and  _406
REMARK  168  A    between atoms: _409  and  _411
REMARK  169  A    between atoms: _411  and  _412
REMARK  170  A    between atoms: _411  and  _414
REMARK  171  A    between atoms: _417  and  _419
REMARK  172  A    between atoms: _419  and  _420
REMARK  173  A    between atoms: _419  and  _422
REMARK  174  A    between atoms: _422  and  _423
REMARK  175  A    between atoms: _426  and  _428
REMARK  176  A    between atoms: _428  and  _429
REMARK  177  A    between atoms: _428  and  _431
REMARK  178  A    between atoms: _431  and  _432
REMARK  179  A    between atoms: _432  and  _433
REMARK  180  A    between atoms: _433  and  _434
REMARK  181  A    between atoms: _434  and  _435
REMARK  182  A    between atoms: _439  and  _441
REMARK  183  A    between atoms: _441  and  _442
REMARK  184  A    between atoms: _441  and  _444
REMARK  185  A    between atoms: _444  and  _445
REMARK  186  A    between atoms: _445  and  _446
REMARK  187  A    between atoms: _448  and  _450
REMARK  188  A    between atoms: _450  and  _451
REMARK  189  A    between atoms: _450  and  _453
REMARK  190  A    between atoms: _453  and  _454
REMARK  191  A    between atoms: _457  and  _459
REMARK  192  A    between atoms: _459  and  _460
REMARK  193  A    between atoms: _462  and  _464
REMARK  194  A    between atoms: _464  and  _465
REMARK  195  A    between atoms: _467  and  _469
REMARK  196  A    between atoms: _469  and  _470
REMARK  197  A    between atoms: _469  and  _472
REMARK  198  A    between atoms: _472  and  _473
REMARK  199  A    between atoms: _476  and  _478
REMARK  200  A    between atoms: _478  and  _479
REMARK  201  A    between atoms: _481  and  _483
REMARK  202  A    between atoms: _483  and  _484
REMARK  203  A    between atoms: _486  and  _488
REMARK  204  A    between atoms: _488  and  _489
REMARK  205  A    between atoms: _488  and  _491
REMARK  206  A    between atoms: _491  and  _492
REMARK  207  A    between atoms: _498  and  _500
REMARK  208  A    between atoms: _500  and  _501
REMARK  209  A    between atoms: _500  and  _503
REMARK  210  A    between atoms: _503  and  _504
REMARK  211  A    between atoms: _507  and  _509
REMARK  212  A    between atoms: _509  and  _510
REMARK  213  A    between atoms: _509  and  _512
REMARK  214  A    between atoms: _515  and  _517
REMARK  215  A    between atoms: _517  and  _518
REMARK  216  A    between atoms: _517  and  _520
REMARK  217  A    between atoms: _520  and  _521
REMARK  218  A    between atoms: _525  and  _526
REMARK  219  A    between atoms: _531  and  _533
REMARK  220  A    between atoms: _533  and  _534
REMARK  221  A    between atoms: _533  and  _536
REMARK  222  A    between atoms: _536  and  _537
REMARK  223  A    between atoms: _541  and  _542
REMARK  224  A    between atoms: _547  and  _549
REMARK  225  A    between atoms: _549  and  _550
REMARK  226  A    between atoms: _549  and  _552
REMARK  227  A    between atoms: _555  and  _557
REMARK  228  A    between atoms: _557  and  _558
REMARK  229  A    between atoms: _557  and  _560
REMARK  230  A    between atoms: _560  and  _561
REMARK  231  A    between atoms: _566  and  _568
REMARK  232  A    between atoms: _568  and  _569
REMARK  233  A    between atoms: _568  and  _571
REMARK  234  A    between atoms: _571  and  _572
REMARK  235  A    between atoms: _575  and  _577
REMARK  236  A    between atoms: _577  and  _578
REMARK  237  A    between atoms: _577  and  _580
REMARK  238  A    between atoms: _580  and  _581
REMARK  239  A    between atoms: _584  and  _586
REMARK  240  A    between atoms: _586  and  _587
REMARK  241  A    between atoms: _589  and  _591
REMARK  242  A    between atoms: _591  and  _592
REMARK  243  A    between atoms: _591  and  _594
REMARK  244  A    between atoms: _594  and  _595
REMARK  245  A    between atoms: _595  and  _596
REMARK  246  A    between atoms: _596  and  _597
REMARK  247  A    between atoms: _606  and  _608
REMARK  248  A    between atoms: _608  and  _609
REMARK  249  A    between atoms: _608  and  _611
REMARK  250  A    between atoms: _611  and  _612
REMARK                            x       y       z     vdW  Elec       q    Type
REMARK                         _______ _______ _______ _____ _____    ______ ____
ROOT
ATOM      1  O   HOH     1       6.382  26.154  -5.231  0.00  0.00    +0.000 OA
ENDROOT
TORSDOF 0
REMARK  Name = ../refined-set-2016/1w5x/1w5x_pocket.pdb
REMARK  250 active torsions:
REMARK  status: ('A' for Active; 'I' for Inactive)
REMARK    1  A    between atoms: _1  and  _3
REMARK    2  A    between atoms: _3  and  _4
REMARK    3  A    between atoms: _3  and  _6
REMARK    4  A    between atoms: _6  and  _7
REMARK    5  A    between atoms: _7  and  _8
REMARK    6  A    between atoms: _8  and  _9
REMARK    7  A    between atoms: _18  and  _20
REMARK    8  A    between atoms: _20  and  _21
REMARK    9  A    between atoms: _20  and  _23
REMARK   10  A    between atoms: _23  and  _24
REMARK   11  A    between atoms: _27  and  _29
REMARK   12  A    between atoms: _29  and  _30
REMARK   13  A    between atoms: _29  and  _32
REMARK   14  A    between atoms: _32  and  _33
REMARK   15  A    between atoms: _36  and  _38
REMARK   16  A    between atoms: _38  and  _39
REMARK   17  A    between atoms: _38  and  _41
REMARK   18  A    between atoms: _41  and  _42
REMARK   19  A    between atoms: _45  and  _47
REMARK   20  A    between atoms: _47  and  _48
REMARK   21  A    between atoms: _47  and  _50
REMARK   22  A    between atoms: _50  and  _51
REMARK   23  A    between atoms: _54  and  _56
REMARK   24  A    between atoms: _56  and  _57
REMARK   25  A    between atoms: _56  and  _59
REMARK   26  A    between atoms: _59  and  _60
REMARK   27  A    between atoms: _63  and  _65
REMARK   28  A    between atoms: _65  and  _66
REMARK   29  A    between atoms: _68  and  _70
REMARK   30  A    between atoms: _70  and  _71
REMARK   31  A    between atoms: _74  and  _76
REMARK   32  A    between atoms: _76  and  _77
REMARK   33  A    between atoms: _76  and  _79
REMARK   34  A    between atoms: _79  and  _80
REMARK   35  A    between atoms: _83  and  _85
REMARK   36  A    between atoms: _85  and  _86
REMARK   37  A    between atoms: _85  and  _88
REMARK   38  A    between atoms: _88  and  _89
REMARK   39  A    between atoms: _92  and  _94
REMARK   40  A    between atoms: _94  and  _95
REMARK   41  A    between atoms: _94  and  _97
REMARK   42  A    between atoms: _97  and  _98
REMARK   43  A    between atoms: _101  and  _103
REMARK   44  A    between atoms: _103  and  _104
REMARK   45  A    between atoms: _103  and  _106
REMARK   46  A    between atoms: _109  and  _111
REMARK   47  A    between atoms: _111  and  _112
REMARK   48  A    between atoms: _111  and  _114
REMARK   49  A    between atoms: _114  and  _115
REMARK   50  A    between atoms: _118  and  _120
REMARK   51  A    between atoms: _120  and  _121
REMARK   52  A    between atoms: _120  and  _123
REMARK   53  A    between atoms: _123  and  _124
REMARK   54  A    between atoms: _124  and  _125
REMARK   55  A    between atoms: _125  and  _126
REMARK   56  A    between atoms: _126  and  _127
REMARK   57  A    between atoms: _131  and  _133
REMARK   58  A    between atoms: _133  and  _134
REMARK   59  A    between atoms: _133  and  _136
REMARK   60  A    between atoms: _136  and  _137
REMARK   61  A    between atoms: _137  and  _138
REMARK   62  A    between atoms: _140  and  _142
REMARK   63  A    between atoms: _142  and  _143
REMARK   64  A    between atoms: _142  and  _145
REMARK   65  A    between atoms: _145  and  _146
REMARK   66  A    between atoms: _149  and  _151
REMARK   67  A    between atoms: _151  and  _152
REMARK   68  A    between atoms: _154  and  _156
REMARK   69  A    between atoms: _156  and  _157
REMARK   70  A    between atoms: _159  and  _161
REMARK   71  A    between atoms: _161  and  _162
REMARK   72  A    between atoms: _161  and  _164
REMARK   73  A    between atoms: _164  and  _165
REMARK   74  A    between atoms: _168  and  _170
REMARK   75  A    between atoms: _170  and  _171
REMARK   76  A    between atoms: _173  and  _175
REMARK   77  A    between atoms: _175  and  _176
REMARK   78  A    between atoms: _178  and  _180
REMARK   79  A    between atoms: _180  and  _181
REMARK   80  A    between atoms: _180  and  _183
REMARK   81  A    between atoms: _183  and  _184
REMARK   82  A    between atoms: _190  and  _192
REMARK   83  A    between atoms: _192  and  _193
REMARK   84  A    between atoms: _192  and  _195
REMARK   85  A    between atoms: _195  and  _196
REMARK   86  A    between atoms: _199  and  _201
REMARK   87  A    between atoms: _201  and  _202
REMARK   88  A    between atoms: _201  and  _204
REMARK   89  A    between atoms: _207  and  _209
REMARK   90  A    between atoms: _209  and  _210
REMARK   91  A    between atoms: _209  and  _212
REMARK   92  A    between atoms: _212  and  _213
REMARK   93  A    between atoms: _217  and  _218
REMARK   94  A    between atoms: _223  and  _225
REMARK   95  A    between atoms: _225  and  _226
REMARK   96  A    between atoms: _225  and  _228
REMARK   97  A    between atoms: _228  and  _229
REMARK   98  A    between atoms: _233  and  _234
REMARK   99  A    between atoms: _239  and  _241
REMARK  100  A    between atoms: _241  and  _242
REMARK  101  A    between atoms: _241  and  _244
REMARK  102  A    between atoms: _247  and  _249
REMARK  103  A    between atoms: _249  and  _250
REMARK  104  A    between atoms: _249  and  _252
REMARK  105  A    between atoms: _252  and  _253
REMARK  106  A    between atoms: _258  and  _260
REMARK  107  A    between atoms: _260  and  _261
REMARK  108  A    between atoms: _260  and  _263
REMARK  109  A    between atoms: _263  and  _264
REMARK  110  A    between atoms: _267  and  _269
REMARK  111  A    between atoms: _269  and  _270
REMARK  112  A    between atoms: _269  and  _272
REMARK  113  A    between atoms: _272  and  _273
REMARK  114  A    between atoms: _276  and  _278
REMARK  115  A    between atoms: _278  and  _279
REMARK  116  A    between atoms: _281  and  _283
REMARK  117  A    between atoms: _283  and  _284
REMARK  118  A    between atoms: _283  and  _286
REMARK  119  A    between atoms: _286  and  _287
REMARK  120  A    between atoms: _287  and  _288
REMARK  121  A    between atoms: _288  and  _289
REMARK  122  A    between atoms: _298  and  _300
REMARK  123  A    between atoms: _300  and  _301
REMARK  124  A    between atoms: _300  and  _303
REMARK  125  A    between atoms: _303  and  _304
REMARK  126  A    between atoms: _309  and  _311
REMARK  127  A    between atoms: _311  and  _312
REMARK  128  A    between atoms: _311  and  _314
REMARK  129  A    between atoms: _314  and  _315
REMARK  130  A    between atoms: _315  and  _316
REMARK  131  A    between atoms: _316  and  _317
REMARK  132  A    between atoms: _326  and  _328
REMARK  133  A    between atoms: _328  and  _329
REMARK  134  A    between atoms: _328  and  _331
REMARK  135  A    between atoms: _331  and  _332
REMARK  136  A    between atoms: _335  and  _337
REMARK  137  A    between atoms: _337  and  _338
REMARK  138  A    between atoms: _337  and  _340
REMARK  139  A    between atoms: _340  and  _341
REMARK  140  A    between atoms: _344  and  _346
REMARK  141  A    between atoms: _346  and  _347
REMARK  142  A    between atoms: _346  and  _349
REMARK  143  A    between atoms: _349  and  _350
REMARK  144  A    between atoms: _353  and  _355
REMARK  145  A    between atoms: _355  and  _356
REMARK  146  A    between atoms: _355  and  _358
REMARK  147  A    between atoms: _358  and  _359
REMARK  148  A    between atoms: _362  and  _364
REMARK  149  A    between atoms: _364  and  _365
REMARK  150  A    between atoms: _364  and  _367
REMARK  151  A    between atoms: _367  and  _368
REMARK  152  A    between atoms: _371  and  _373
REMARK  153  A    between atoms: _373  and  _374
REMARK  154  A    between atoms: _376  and  _378
REMARK  155  A    between atoms: _378  and  _379
REMARK  156  A    between atoms: _382  and  _384
REMARK  157  A    between atoms: _384  and  _385
REMARK  158  A    between atoms: _384  and  _387
REMARK  159  A    between atoms: _387  and  _388
REMARK  160  A    between atoms: _391  and  _393
REMARK  161  A    between atoms: _393  and  _394
REMARK  162  A    between atoms: _393  and  _396
REMARK  163  A    between atoms: _396  and  _397
REMARK  164  A    between atoms: _400  and  _402
REMARK  165  A    between atoms: _402  and  _403
REMARK  166  A    between atoms: _402  and  _405
REMARK  167  A    between atoms: _405  and  _406
REMARK  168  A    between atoms: _409  and  _411
REMARK  169  A    between atoms: _411  and  _412
REMARK  170  A    between atoms: _411  and  _414
REMARK  171  A    between atoms: _417  and  _419
REMARK  172  A    between atoms: _419  and  _420
REMARK  173  A    between atoms: _419  and  _422
REMARK  174  A    between atoms: _422  and  _423
REMARK  175  A    between atoms: _426  and  _428
REMARK  176  A    between atoms: _428  and  _429
REMARK  177  A    between atoms: _428  and  _431
REMARK  178  A    between atoms: _431  and  _432
REMARK  179  A    between atoms: _432  and  _433
REMARK  180  A    between atoms: _433  and  _434
REMARK  181  A    between atoms: _434  and  _435
REMARK  182  A    between atoms: _439  and  _441
REMARK  183  A    between atoms: _441  and  _442
REMARK  184  A    between atoms: _441  and  _444
REMARK  185  A    between atoms: _444  and  _445
REMARK  186  A    between atoms: _445  and  _446
REMARK  187  A    between atoms: _448  and  _450
REMARK  188  A    between atoms: _450  and  _451
REMARK  189  A    between atoms: _450  and  _453
REMARK  190  A    between atoms: _453  and  _454
REMARK  191  A    between atoms: _457  and  _459
REMARK  192  A    between atoms: _459  and  _460
REMARK  193  A    between atoms: _462  and  _464
REMARK  194  A    between atoms: _464  and  _465
REMARK  195  A    between atoms: _467  and  _469
REMARK  196  A    between atoms: _469  and  _470
REMARK  197  A    between atoms: _469  and  _472
REMARK  198  A    between atoms: _472  and  _473
REMARK  199  A    between atoms: _476  and  _478
REMARK  200  A    between atoms: _478  and  _479
REMARK  201  A    between atoms: _481  and  _483
REMARK  202  A    between atoms: _483  and  _484
REMARK  203  A    between atoms: _486  and  _488
REMARK  204  A    between atoms: _488  and  _489
REMARK  205  A    between atoms: _488  and  _491
REMARK  206  A    between atoms: _491  and  _492
REMARK  207  A    between atoms: _498  and  _500
REMARK  208  A    between atoms: _500  and  _501
REMARK  209  A    between atoms: _500  and  _503
REMARK  210  A    between atoms: _503  and  _504
REMARK  211  A    between atoms: _507  and  _509
REMARK  212  A    between atoms: _509  and  _510
REMARK  213  A    between atoms: _509  and  _512
REMARK  214  A    between atoms: _515  and  _517
REMARK  215  A    between atoms: _517  and  _518
REMARK  216  A    between atoms: _517  and  _520
REMARK  217  A    between atoms: _520  and  _521
REMARK  218  A    between atoms: _525  and  _526
REMARK  219  A    between atoms: _531  and  _533
REMARK  220  A    between atoms: _533  and  _534
REMARK  221  A    between atoms: _533  and  _536
REMARK  222  A    between atoms: _536  and  _537
REMARK  223  A    between atoms: _541  and  _542
REMARK  224  A    between atoms: _547  and  _549
REMARK  225  A    between atoms: _549  and  _550
REMARK  226  A    between atoms: _549  and  _552
REMARK  227  A    between atoms: _555  and  _557
REMARK  228  A    between atoms: _557  and  _558
REMARK  229  A    between atoms: _557  and  _560
REMARK  230  A    between atoms: _560  and  _561
REMARK  231  A    between atoms: _566  and  _568
REMARK  232  A    between atoms: _568  and  _569
REMARK  233  A    between atoms: _568  and  _571
REMARK  234  A    between atoms: _571  and  _572
REMARK  235  A    between atoms: _575  and  _577
REMARK  236  A    between atoms: _577  and  _578
REMARK  237  A    between atoms: _577  and  _580
REMARK  238  A    between atoms: _580  and  _581
REMARK  239  A    between atoms: _584  and  _586
REMARK  240  A    between atoms: _586  and  _587
REMARK  241  A    between atoms: _589  and  _591
REMARK  242  A    between atoms: _591  and  _592
REMARK  243  A    between atoms: _591  and  _594
REMARK  244  A    between atoms: _594  and  _595
REMARK  245  A    between atoms: _595  and  _596
REMARK  246  A    between atoms: _596  and  _597
REMARK  247  A    between atoms: _606  and  _608
REMARK  248  A    between atoms: _608  and  _609
REMARK  249  A    between atoms: _608  and  _611
REMARK  250  A    between atoms: _611  and  _612
REMARK                            x       y       z     vdW  Elec       q    Type
REMARK                         _______ _______ _______ _____ _____    ______ ____
ROOT
ATOM      1  O   HOH     1       3.644  26.309   2.780  0.00  0.00    +0.000 OA
ENDROOT
TORSDOF 0
REMARK  Name = ../refined-set-2016/1w5x/1w5x_pocket.pdb
REMARK  250 active torsions:
REMARK  status: ('A' for Active; 'I' for Inactive)
REMARK    1  A    between atoms: _1  and  _3
REMARK    2  A    between atoms: _3  and  _4
REMARK    3  A    between atoms: _3  and  _6
REMARK    4  A    between atoms: _6  and  _7
REMARK    5  A    between atoms: _7  and  _8
REMARK    6  A    between atoms: _8  and  _9
REMARK    7  A    between atoms: _18  and  _20
REMARK    8  A    between atoms: _20  and  _21
REMARK    9  A    between atoms: _20  and  _23
REMARK   10  A    between atoms: _23  and  _24
REMARK   11  A    between atoms: _27  and  _29
REMARK   12  A    between atoms: _29  and  _30
REMARK   13  A    between atoms: _29  and  _32
REMARK   14  A    between atoms: _32  and  _33
REMARK   15  A    between atoms: _36  and  _38
REMARK   16  A    between atoms: _38  and  _39
REMARK   17  A    between atoms: _38  and  _41
REMARK   18  A    between atoms: _41  and  _42
REMARK   19  A    between atoms: _45  and  _47
REMARK   20  A    between atoms: _47  and  _48
REMARK   21  A    between atoms: _47  and  _50
REMARK   22  A    between atoms: _50  and  _51
REMARK   23  A    between atoms: _54  and  _56
REMARK   24  A    between atoms: _56  and  _57
REMARK   25  A    between atoms: _56  and  _59
REMARK   26  A    between atoms: _59  and  _60
REMARK   27  A    between atoms: _63  and  _65
REMARK   28  A    between atoms: _65  and  _66
REMARK   29  A    between atoms: _68  and  _70
REMARK   30  A    between atoms: _70  and  _71
REMARK   31  A    between atoms: _74  and  _76
REMARK   32  A    between atoms: _76  and  _77
REMARK   33  A    between atoms: _76  and  _79
REMARK   34  A    between atoms: _79  and  _80
REMARK   35  A    between atoms: _83  and  _85
REMARK   36  A    between atoms: _85  and  _86
REMARK   37  A    between atoms: _85  and  _88
REMARK   38  A    between atoms: _88  and  _89
REMARK   39  A    between atoms: _92  and  _94
REMARK   40  A    between atoms: _94  and  _95
REMARK   41  A    between atoms: _94  and  _97
REMARK   42  A    between atoms: _97  and  _98
REMARK   43  A    between atoms: _101  and  _103
REMARK   44  A    between atoms: _103  and  _104
REMARK   45  A    between atoms: _103  and  _106
REMARK   46  A    between atoms: _109  and  _111
REMARK   47  A    between atoms: _111  and  _112
REMARK   48  A    between atoms: _111  and  _114
REMARK   49  A    between atoms: _114  and  _115
REMARK   50  A    between atoms: _118  and  _120
REMARK   51  A    between atoms: _120  and  _121
REMARK   52  A    between atoms: _120  and  _123
REMARK   53  A    between atoms: _123  and  _124
REMARK   54  A    between atoms: _124  and  _125
REMARK   55  A    between atoms: _125  and  _126
REMARK   56  A    between atoms: _126  and  _127
REMARK   57  A    between atoms: _131  and  _133
REMARK   58  A    between atoms: _133  and  _134
REMARK   59  A    between atoms: _133  and  _136
REMARK   60  A    between atoms: _136  and  _137
REMARK   61  A    between atoms: _137  and  _138
REMARK   62  A    between atoms: _140  and  _142
REMARK   63  A    between atoms: _142  and  _143
REMARK   64  A    between atoms: _142  and  _145
REMARK   65  A    between atoms: _145  and  _146
REMARK   66  A    between atoms: _149  and  _151
REMARK   67  A    between atoms: _151  and  _152
REMARK   68  A    between atoms: _154  and  _156
REMARK   69  A    between atoms: _156  and  _157
REMARK   70  A    between atoms: _159  and  _161
REMARK   71  A    between atoms: _161  and  _162
REMARK   72  A    between atoms: _161  and  _164
REMARK   73  A    between atoms: _164  and  _165
REMARK   74  A    between atoms: _168  and  _170
REMARK   75  A    between atoms: _170  and  _171
REMARK   76  A    between atoms: _173  and  _175
REMARK   77  A    between atoms: _175  and  _176
REMARK   78  A    between atoms: _178  and  _180
REMARK   79  A    between atoms: _180  and  _181
REMARK   80  A    between atoms: _180  and  _183
REMARK   81  A    between atoms: _183  and  _184
REMARK   82  A    between atoms: _190  and  _192
REMARK   83  A    between atoms: _192  and  _193
REMARK   84  A    between atoms: _192  and  _195
REMARK   85  A    between atoms: _195  and  _196
REMARK   86  A    between atoms: _199  and  _201
REMARK   87  A    between atoms: _201  and  _202
REMARK   88  A    between atoms: _201  and  _204
REMARK   89  A    between atoms: _207  and  _209
REMARK   90  A    between atoms: _209  and  _210
REMARK   91  A    between atoms: _209  and  _212
REMARK   92  A    between atoms: _212  and  _213
REMARK   93  A    between atoms: _217  and  _218
REMARK   94  A    between atoms: _223  and  _225
REMARK   95  A    between atoms: _225  and  _226
REMARK   96  A    between atoms: _225  and  _228
REMARK   97  A    between atoms: _228  and  _229
REMARK   98  A    between atoms: _233  and  _234
REMARK   99  A    between atoms: _239  and  _241
REMARK  100  A    between atoms: _241  and  _242
REMARK  101  A    between atoms: _241  and  _244
REMARK  102  A    between atoms: _247  and  _249
REMARK  103  A    between atoms: _249  and  _250
REMARK  104  A    between atoms: _249  and  _252
REMARK  105  A    between atoms: _252  and  _253
REMARK  106  A    between atoms: _258  and  _260
REMARK  107  A    between atoms: _260  and  _261
REMARK  108  A    between atoms: _260  and  _263
REMARK  109  A    between atoms: _263  and  _264
REMARK  110  A    between atoms: _267  and  _269
REMARK  111  A    between atoms: _269  and  _270
REMARK  112  A    between atoms: _269  and  _272
REMARK  113  A    between atoms: _272  and  _273
REMARK  114  A    between atoms: _276  and  _278
REMARK  115  A    between atoms: _278  and  _279
REMARK  116  A    between atoms: _281  and  _283
REMARK  117  A    between atoms: _283  and  _284
REMARK  118  A    between atoms: _283  and  _286
REMARK  119  A    between atoms: _286  and  _287
REMARK  120  A    between atoms: _287  and  _288
REMARK  121  A    between atoms: _288  and  _289
REMARK  122  A    between atoms: _298  and  _300
REMARK  123  A    between atoms: _300  and  _301
REMARK  124  A    between atoms: _300  and  _303
REMARK  125  A    between atoms: _303  and  _304
REMARK  126  A    between atoms: _309  and  _311
REMARK  127  A    between atoms: _311  and  _312
REMARK  128  A    between atoms: _311  and  _314
REMARK  129  A    between atoms: _314  and  _315
REMARK  130  A    between atoms: _315  and  _316
REMARK  131  A    between atoms: _316  and  _317
REMARK  132  A    between atoms: _326  and  _328
REMARK  133  A    between atoms: _328  and  _329
REMARK  134  A    between atoms: _328  and  _331
REMARK  135  A    between atoms: _331  and  _332
REMARK  136  A    between atoms: _335  and  _337
REMARK  137  A    between atoms: _337  and  _338
REMARK  138  A    between atoms: _337  and  _340
REMARK  139  A    between atoms: _340  and  _341
REMARK  140  A    between atoms: _344  and  _346
REMARK  141  A    between atoms: _346  and  _347
REMARK  142  A    between atoms: _346  and  _349
REMARK  143  A    between atoms: _349  and  _350
REMARK  144  A    between atoms: _353  and  _355
REMARK  145  A    between atoms: _355  and  _356
REMARK  146  A    between atoms: _355  and  _358
REMARK  147  A    between atoms: _358  and  _359
REMARK  148  A    between atoms: _362  and  _364
REMARK  149  A    between atoms: _364  and  _365
REMARK  150  A    between atoms: _364  and  _367
REMARK  151  A    between atoms: _367  and  _368
REMARK  152  A    between atoms: _371  and  _373
REMARK  153  A    between atoms: _373  and  _374
REMARK  154  A    between atoms: _376  and  _378
REMARK  155  A    between atoms: _378  and  _379
REMARK  156  A    between atoms: _382  and  _384
REMARK  157  A    between atoms: _384  and  _385
REMARK  158  A    between atoms: _384  and  _387
REMARK  159  A    between atoms: _387  and  _388
REMARK  160  A    between atoms: _391  and  _393
REMARK  161  A    between atoms: _393  and  _394
REMARK  162  A    between atoms: _393  and  _396
REMARK  163  A    between atoms: _396  and  _397
REMARK  164  A    between atoms: _400  and  _402
REMARK  165  A    between atoms: _402  and  _403
REMARK  166  A    between atoms: _402  and  _405
REMARK  167  A    between atoms: _405  and  _406
REMARK  168  A    between atoms: _409  and  _411
REMARK  169  A    between atoms: _411  and  _412
REMARK  170  A    between atoms: _411  and  _414
REMARK  171  A    between atoms: _417  and  _419
REMARK  172  A    between atoms: _419  and  _420
REMARK  173  A    between atoms: _419  and  _422
REMARK  174  A    between atoms: _422  and  _423
REMARK  175  A    between atoms: _426  and  _428
REMARK  176  A    between atoms: _428  and  _429
REMARK  177  A    between atoms: _428  and  _431
REMARK  178  A    between atoms: _431  and  _432
REMARK  179  A    between atoms: _432  and  _433
REMARK  180  A    between atoms: _433  and  _434
REMARK  181  A    between atoms: _434  and  _435
REMARK  182  A    between atoms: _439  and  _441
REMARK  183  A    between atoms: _441  and  _442
REMARK  184  A    between atoms: _441  and  _444
REMARK  185  A    between atoms: _444  and  _445
REMARK  186  A    between atoms: _445  and  _446
REMARK  187  A    between atoms: _448  and  _450
REMARK  188  A    between atoms: _450  and  _451
REMARK  189  A    between atoms: _450  and  _453
REMARK  190  A    between atoms: _453  and  _454
REMARK  191  A    between atoms: _457  and  _459
REMARK  192  A    between atoms: _459  and  _460
REMARK  193  A    between atoms: _462  and  _464
REMARK  194  A    between atoms: _464  and  _465
REMARK  195  A    between atoms: _467  and  _469
REMARK  196  A    between atoms: _469  and  _470
REMARK  197  A    between atoms: _469  and  _472
REMARK  198  A    between atoms: _472  and  _473
REMARK  199  A    between atoms: _476  and  _478
REMARK  200  A    between atoms: _478  and  _479
REMARK  201  A    between atoms: _481  and  _483
REMARK  202  A    between atoms: _483  and  _484
REMARK  203  A    between atoms: _486  and  _488
REMARK  204  A    between atoms: _488  and  _489
REMARK  205  A    between atoms: _488  and  _491
REMARK  206  A    between atoms: _491  and  _492
REMARK  207  A    between atoms: _498  and  _500
REMARK  208  A    between atoms: _500  and  _501
REMARK  209  A    between atoms: _500  and  _503
REMARK  210  A    between atoms: _503  and  _504
REMARK  211  A    between atoms: _507  and  _509
REMARK  212  A    between atoms: _509  and  _510
REMARK  213  A    between atoms: _509  and  _512
REMARK  214  A    between atoms: _515  and  _517
REMARK  215  A    between atoms: _517  and  _518
REMARK  216  A    between atoms: _517  and  _520
REMARK  217  A    between atoms: _520  and  _521
REMARK  218  A    between atoms: _525  and  _526
REMARK  219  A    between atoms: _531  and  _533
REMARK  220  A    between atoms: _533  and  _534
REMARK  221  A    between atoms: _533  and  _536
REMARK  222  A    between atoms: _536  and  _537
REMARK  223  A    between atoms: _541  and  _542
REMARK  224  A    between atoms: _547  and  _549
REMARK  225  A    between atoms: _549  and  _550
REMARK  226  A    between atoms: _549  and  _552
REMARK  227  A    between atoms: _555  and  _557
REMARK  228  A    between atoms: _557  and  _558
REMARK  229  A    between atoms: _557  and  _560
REMARK  230  A    between atoms: _560  and  _561
REMARK  231  A    between atoms: _566  and  _568
REMARK  232  A    between atoms: _568  and  _569
REMARK  233  A    between atoms: _568  and  _571
REMARK  234  A    between atoms: _571  and  _572
REMARK  235  A    between atoms: _575  and  _577
REMARK  236  A    between atoms: _577  and  _578
REMARK  237  A    between atoms: _577  and  _580
REMARK  238  A    between atoms: _580  and  _581
REMARK  239  A    between atoms: _584  and  _586
REMARK  240  A    between atoms: _586  and  _587
REMARK  241  A    between atoms: _589  and  _591
REMARK  242  A    between atoms: _591  and  _592
REMARK  243  A    between atoms: _591  and  _594
REMARK  244  A    between atoms: _594  and  _595
REMARK  245  A    between atoms: _595  and  _596
REMARK  246  A    between atoms: _596  and  _597
REMARK  247  A    between atoms: _606  and  _608
REMARK  248  A    between atoms: _608  and  _609
REMARK  249  A    between atoms: _608  and  _611
REMARK  250  A    between atoms: _611  and  _612
REMARK                            x       y       z     vdW  Elec       q    Type
REMARK                         _______ _______ _______ _____ _____    ______ ____
ROOT
ATOM      1  O   HOH     1       5.917  27.965  -2.990  0.00  0.00    +0.000 OA
ENDROOT
TORSDOF 0
REMARK  Name = ../refined-set-2016/1w5x/1w5x_pocket.pdb
REMARK  250 active torsions:
REMARK  status: ('A' for Active; 'I' for Inactive)
REMARK    1  A    between atoms: _1  and  _3
REMARK    2  A    between atoms: _3  and  _4
REMARK    3  A    between atoms: _3  and  _6
REMARK    4  A    between atoms: _6  and  _7
REMARK    5  A    between atoms: _7  and  _8
REMARK    6  A    between atoms: _8  and  _9
REMARK    7  A    between atoms: _18  and  _20
REMARK    8  A    between atoms: _20  and  _21
REMARK    9  A    between atoms: _20  and  _23
REMARK   10  A    between atoms: _23  and  _24
REMARK   11  A    between atoms: _27  and  _29
REMARK   12  A    between atoms: _29  and  _30
REMARK   13  A    between atoms: _29  and  _32
REMARK   14  A    between atoms: _32  and  _33
REMARK   15  A    between atoms: _36  and  _38
REMARK   16  A    between atoms: _38  and  _39
REMARK   17  A    between atoms: _38  and  _41
REMARK   18  A    between atoms: _41  and  _42
REMARK   19  A    between atoms: _45  and  _47
REMARK   20  A    between atoms: _47  and  _48
REMARK   21  A    between atoms: _47  and  _50
REMARK   22  A    between atoms: _50  and  _51
REMARK   23  A    between atoms: _54  and  _56
REMARK   24  A    between atoms: _56  and  _57
REMARK   25  A    between atoms: _56  and  _59
REMARK   26  A    between atoms: _59  and  _60
REMARK   27  A    between atoms: _63  and  _65
REMARK   28  A    between atoms: _65  and  _66
REMARK   29  A    between atoms: _68  and  _70
REMARK   30  A    between atoms: _70  and  _71
REMARK   31  A    between atoms: _74  and  _76
REMARK   32  A    between atoms: _76  and  _77
REMARK   33  A    between atoms: _76  and  _79
REMARK   34  A    between atoms: _79  and  _80
REMARK   35  A    between atoms: _83  and  _85
REMARK   36  A    between atoms: _85  and  _86
REMARK   37  A    between atoms: _85  and  _88
REMARK   38  A    between atoms: _88  and  _89
REMARK   39  A    between atoms: _92  and  _94
REMARK   40  A    between atoms: _94  and  _95
REMARK   41  A    between atoms: _94  and  _97
REMARK   42  A    between atoms: _97  and  _98
REMARK   43  A    between atoms: _101  and  _103
REMARK   44  A    between atoms: _103  and  _104
REMARK   45  A    between atoms: _103  and  _106
REMARK   46  A    between atoms: _109  and  _111
REMARK   47  A    between atoms: _111  and  _112
REMARK   48  A    between atoms: _111  and  _114
REMARK   49  A    between atoms: _114  and  _115
REMARK   50  A    between atoms: _118  and  _120
REMARK   51  A    between atoms: _120  and  _121
REMARK   52  A    between atoms: _120  and  _123
REMARK   53  A    between atoms: _123  and  _124
REMARK   54  A    between atoms: _124  and  _125
REMARK   55  A    between atoms: _125  and  _126
REMARK   56  A    between atoms: _126  and  _127
REMARK   57  A    between atoms: _131  and  _133
REMARK   58  A    between atoms: _133  and  _134
REMARK   59  A    between atoms: _133  and  _136
REMARK   60  A    between atoms: _136  and  _137
REMARK   61  A    between atoms: _137  and  _138
REMARK   62  A    between atoms: _140  and  _142
REMARK   63  A    between atoms: _142  and  _143
REMARK   64  A    between atoms: _142  and  _145
REMARK   65  A    between atoms: _145  and  _146
REMARK   66  A    between atoms: _149  and  _151
REMARK   67  A    between atoms: _151  and  _152
REMARK   68  A    between atoms: _154  and  _156
REMARK   69  A    between atoms: _156  and  _157
REMARK   70  A    between atoms: _159  and  _161
REMARK   71  A    between atoms: _161  and  _162
REMARK   72  A    between atoms: _161  and  _164
REMARK   73  A    between atoms: _164  and  _165
REMARK   74  A    between atoms: _168  and  _170
REMARK   75  A    between atoms: _170  and  _171
REMARK   76  A    between atoms: _173  and  _175
REMARK   77  A    between atoms: _175  and  _176
REMARK   78  A    between atoms: _178  and  _180
REMARK   79  A    between atoms: _180  and  _181
REMARK   80  A    between atoms: _180  and  _183
REMARK   81  A    between atoms: _183  and  _184
REMARK   82  A    between atoms: _190  and  _192
REMARK   83  A    between atoms: _192  and  _193
REMARK   84  A    between atoms: _192  and  _195
REMARK   85  A    between atoms: _195  and  _196
REMARK   86  A    between atoms: _199  and  _201
REMARK   87  A    between atoms: _201  and  _202
REMARK   88  A    between atoms: _201  and  _204
REMARK   89  A    between atoms: _207  and  _209
REMARK   90  A    between atoms: _209  and  _210
REMARK   91  A    between atoms: _209  and  _212
REMARK   92  A    between atoms: _212  and  _213
REMARK   93  A    between atoms: _217  and  _218
REMARK   94  A    between atoms: _223  and  _225
REMARK   95  A    between atoms: _225  and  _226
REMARK   96  A    between atoms: _225  and  _228
REMARK   97  A    between atoms: _228  and  _229
REMARK   98  A    between atoms: _233  and  _234
REMARK   99  A    between atoms: _239  and  _241
REMARK  100  A    between atoms: _241  and  _242
REMARK  101  A    between atoms: _241  and  _244
REMARK  102  A    between atoms: _247  and  _249
REMARK  103  A    between atoms: _249  and  _250
REMARK  104  A    between atoms: _249  and  _252
REMARK  105  A    between atoms: _252  and  _253
REMARK  106  A    between atoms: _258  and  _260
REMARK  107  A    between atoms: _260  and  _261
REMARK  108  A    between atoms: _260  and  _263
REMARK  109  A    between atoms: _263  and  _264
REMARK  110  A    between atoms: _267  and  _269
REMARK  111  A    between atoms: _269  and  _270
REMARK  112  A    between atoms: _269  and  _272
REMARK  113  A    between atoms: _272  and  _273
REMARK  114  A    between atoms: _276  and  _278
REMARK  115  A    between atoms: _278  and  _279
REMARK  116  A    between atoms: _281  and  _283
REMARK  117  A    between atoms: _283  and  _284
REMARK  118  A    between atoms: _283  and  _286
REMARK  119  A    between atoms: _286  and  _287
REMARK  120  A    between atoms: _287  and  _288
REMARK  121  A    between atoms: _288  and  _289
REMARK  122  A    between atoms: _298  and  _300
REMARK  123  A    between atoms: _300  and  _301
REMARK  124  A    between atoms: _300  and  _303
REMARK  125  A    between atoms: _303  and  _304
REMARK  126  A    between atoms: _309  and  _311
REMARK  127  A    between atoms: _311  and  _312
REMARK  128  A    between atoms: _311  and  _314
REMARK  129  A    between atoms: _314  and  _315
REMARK  130  A    between atoms: _315  and  _316
REMARK  131  A    between atoms: _316  and  _317
REMARK  132  A    between atoms: _326  and  _328
REMARK  133  A    between atoms: _328  and  _329
REMARK  134  A    between atoms: _328  and  _331
REMARK  135  A    between atoms: _331  and  _332
REMARK  136  A    between atoms: _335  and  _337
REMARK  137  A    between atoms: _337  and  _338
REMARK  138  A    between atoms: _337  and  _340
REMARK  139  A    between atoms: _340  and  _341
REMARK  140  A    between atoms: _344  and  _346
REMARK  141  A    between atoms: _346  and  _347
REMARK  142  A    between atoms: _346  and  _349
REMARK  143  A    between atoms: _349  and  _350
REMARK  144  A    between atoms: _353  and  _355
REMARK  145  A    between atoms: _355  and  _356
REMARK  146  A    between atoms: _355  and  _358
REMARK  147  A    between atoms: _358  and  _359
REMARK  148  A    between atoms: _362  and  _364
REMARK  149  A    between atoms: _364  and  _365
REMARK  150  A    between atoms: _364  and  _367
REMARK  151  A    between atoms: _367  and  _368
REMARK  152  A    between atoms: _371  and  _373
REMARK  153  A    between atoms: _373  and  _374
REMARK  154  A    between atoms: _376  and  _378
REMARK  155  A    between atoms: _378  and  _379
REMARK  156  A    between atoms: _382  and  _384
REMARK  157  A    between atoms: _384  and  _385
REMARK  158  A    between atoms: _384  and  _387
REMARK  159  A    between atoms: _387  and  _388
REMARK  160  A    between atoms: _391  and  _393
REMARK  161  A    between atoms: _393  and  _394
REMARK  162  A    between atoms: _393  and  _396
REMARK  163  A    between atoms: _396  and  _397
REMARK  164  A    between atoms: _400  and  _402
REMARK  165  A    between atoms: _402  and  _403
REMARK  166  A    between atoms: _402  and  _405
REMARK  167  A    between atoms: _405  and  _406
REMARK  168  A    between atoms: _409  and  _411
REMARK  169  A    between atoms: _411  and  _412
REMARK  170  A    between atoms: _411  and  _414
REMARK  171  A    between atoms: _417  and  _419
REMARK  172  A    between atoms: _419  and  _420
REMARK  173  A    between atoms: _419  and  _422
REMARK  174  A    between atoms: _422  and  _423
REMARK  175  A    between atoms: _426  and  _428
REMARK  176  A    between atoms: _428  and  _429
REMARK  177  A    between atoms: _428  and  _431
REMARK  178  A    between atoms: _431  and  _432
REMARK  179  A    between atoms: _432  and  _433
REMARK  180  A    between atoms: _433  and  _434
REMARK  181  A    between atoms: _434  and  _435
REMARK  182  A    between atoms: _439  and  _441
REMARK  183  A    between atoms: _441  and  _442
REMARK  184  A    between atoms: _441  and  _444
REMARK  185  A    between atoms: _444  and  _445
REMARK  186  A    between atoms: _445  and  _446
REMARK  187  A    between atoms: _448  and  _450
REMARK  188  A    between atoms: _450  and  _451
REMARK  189  A    between atoms: _450  and  _453
REMARK  190  A    between atoms: _453  and  _454
REMARK  191  A    between atoms: _457  and  _459
REMARK  192  A    between atoms: _459  and  _460
REMARK  193  A    between atoms: _462  and  _464
REMARK  194  A    between atoms: _464  and  _465
REMARK  195  A    between atoms: _467  and  _469
REMARK  196  A    between atoms: _469  and  _470
REMARK  197  A    between atoms: _469  and  _472
REMARK  198  A    between atoms: _472  and  _473
REMARK  199  A    between atoms: _476  and  _478
REMARK  200  A    between atoms: _478  and  _479
REMARK  201  A    between atoms: _481  and  _483
REMARK  202  A    between atoms: _483  and  _484
REMARK  203  A    between atoms: _486  and  _488
REMARK  204  A    between atoms: _488  and  _489
REMARK  205  A    between atoms: _488  and  _491
REMARK  206  A    between atoms: _491  and  _492
REMARK  207  A    between atoms: _498  and  _500
REMARK  208  A    between atoms: _500  and  _501
REMARK  209  A    between atoms: _500  and  _503
REMARK  210  A    between atoms: _503  and  _504
REMARK  211  A    between atoms: _507  and  _509
REMARK  212  A    between atoms: _509  and  _510
REMARK  213  A    between atoms: _509  and  _512
REMARK  214  A    between atoms: _515  and  _517
REMARK  215  A    between atoms: _517  and  _518
REMARK  216  A    between atoms: _517  and  _520
REMARK  217  A    between atoms: _520  and  _521
REMARK  218  A    between atoms: _525  and  _526
REMARK  219  A    between atoms: _531  and  _533
REMARK  220  A    between atoms: _533  and  _534
REMARK  221  A    between atoms: _533  and  _536
REMARK  222  A    between atoms: _536  and  _537
REMARK  223  A    between atoms: _541  and  _542
REMARK  224  A    between atoms: _547  and  _549
REMARK  225  A    between atoms: _549  and  _550
REMARK  226  A    between atoms: _549  and  _552
REMARK  227  A    between atoms: _555  and  _557
REMARK  228  A    between atoms: _557  and  _558
REMARK  229  A    between atoms: _557  and  _560
REMARK  230  A    between atoms: _560  and  _561
REMARK  231  A    between atoms: _566  and  _568
REMARK  232  A    between atoms: _568  and  _569
REMARK  233  A    between atoms: _568  and  _571
REMARK  234  A    between atoms: _571  and  _572
REMARK  235  A    between atoms: _575  and  _577
REMARK  236  A    between atoms: _577  and  _578
REMARK  237  A    between atoms: _577  and  _580
REMARK  238  A    between atoms: _580  and  _581
REMARK  239  A    between atoms: _584  and  _586
REMARK  240  A    between atoms: _586  and  _587
REMARK  241  A    between atoms: _589  and  _591
REMARK  242  A    between atoms: _591  and  _592
REMARK  243  A    between atoms: _591  and  _594
REMARK  244  A    between atoms: _594  and  _595
REMARK  245  A    between atoms: _595  and  _596
REMARK  246  A    between atoms: _596  and  _597
REMARK  247  A    between atoms: _606  and  _608
REMARK  248  A    between atoms: _608  and  _609
REMARK  249  A    between atoms: _608  and  _611
REMARK  250  A    between atoms: _611  and  _612
REMARK                            x       y       z     vdW  Elec       q    Type
REMARK                         _______ _______ _______ _____ _____    ______ ____
ROOT
ATOM      1  O   HOH     1      16.709  15.734  11.345  0.00  0.00    +0.000 OA
ENDROOT
TORSDOF 0
REMARK  Name = ../refined-set-2016/1w5x/1w5x_pocket.pdb
REMARK  250 active torsions:
REMARK  status: ('A' for Active; 'I' for Inactive)
REMARK    1  A    between atoms: _1  and  _3
REMARK    2  A    between atoms: _3  and  _4
REMARK    3  A    between atoms: _3  and  _6
REMARK    4  A    between atoms: _6  and  _7
REMARK    5  A    between atoms: _7  and  _8
REMARK    6  A    between atoms: _8  and  _9
REMARK    7  A    between atoms: _18  and  _20
REMARK    8  A    between atoms: _20  and  _21
REMARK    9  A    between atoms: _20  and  _23
REMARK   10  A    between atoms: _23  and  _24
REMARK   11  A    between atoms: _27  and  _29
REMARK   12  A    between atoms: _29  and  _30
REMARK   13  A    between atoms: _29  and  _32
REMARK   14  A    between atoms: _32  and  _33
REMARK   15  A    between atoms: _36  and  _38
REMARK   16  A    between atoms: _38  and  _39
REMARK   17  A    between atoms: _38  and  _41
REMARK   18  A    between atoms: _41  and  _42
REMARK   19  A    between atoms: _45  and  _47
REMARK   20  A    between atoms: _47  and  _48
REMARK   21  A    between atoms: _47  and  _50
REMARK   22  A    between atoms: _50  and  _51
REMARK   23  A    between atoms: _54  and  _56
REMARK   24  A    between atoms: _56  and  _57
REMARK   25  A    between atoms: _56  and  _59
REMARK   26  A    between atoms: _59  and  _60
REMARK   27  A    between atoms: _63  and  _65
REMARK   28  A    between atoms: _65  and  _66
REMARK   29  A    between atoms: _68  and  _70
REMARK   30  A    between atoms: _70  and  _71
REMARK   31  A    between atoms: _74  and  _76
REMARK   32  A    between atoms: _76  and  _77
REMARK   33  A    between atoms: _76  and  _79
REMARK   34  A    between atoms: _79  and  _80
REMARK   35  A    between atoms: _83  and  _85
REMARK   36  A    between atoms: _85  and  _86
REMARK   37  A    between atoms: _85  and  _88
REMARK   38  A    between atoms: _88  and  _89
REMARK   39  A    between atoms: _92  and  _94
REMARK   40  A    between atoms: _94  and  _95
REMARK   41  A    between atoms: _94  and  _97
REMARK   42  A    between atoms: _97  and  _98
REMARK   43  A    between atoms: _101  and  _103
REMARK   44  A    between atoms: _103  and  _104
REMARK   45  A    between atoms: _103  and  _106
REMARK   46  A    between atoms: _109  and  _111
REMARK   47  A    between atoms: _111  and  _112
REMARK   48  A    between atoms: _111  and  _114
REMARK   49  A    between atoms: _114  and  _115
REMARK   50  A    between atoms: _118  and  _120
REMARK   51  A    between atoms: _120  and  _121
REMARK   52  A    between atoms: _120  and  _123
REMARK   53  A    between atoms: _123  and  _124
REMARK   54  A    between atoms: _124  and  _125
REMARK   55  A    between atoms: _125  and  _126
REMARK   56  A    between atoms: _126  and  _127
REMARK   57  A    between atoms: _131  and  _133
REMARK   58  A    between atoms: _133  and  _134
REMARK   59  A    between atoms: _133  and  _136
REMARK   60  A    between atoms: _136  and  _137
REMARK   61  A    between atoms: _137  and  _138
REMARK   62  A    between atoms: _140  and  _142
REMARK   63  A    between atoms: _142  and  _143
REMARK   64  A    between atoms: _142  and  _145
REMARK   65  A    between atoms: _145  and  _146
REMARK   66  A    between atoms: _149  and  _151
REMARK   67  A    between atoms: _151  and  _152
REMARK   68  A    between atoms: _154  and  _156
REMARK   69  A    between atoms: _156  and  _157
REMARK   70  A    between atoms: _159  and  _161
REMARK   71  A    between atoms: _161  and  _162
REMARK   72  A    between atoms: _161  and  _164
REMARK   73  A    between atoms: _164  and  _165
REMARK   74  A    between atoms: _168  and  _170
REMARK   75  A    between atoms: _170  and  _171
REMARK   76  A    between atoms: _173  and  _175
REMARK   77  A    between atoms: _175  and  _176
REMARK   78  A    between atoms: _178  and  _180
REMARK   79  A    between atoms: _180  and  _181
REMARK   80  A    between atoms: _180  and  _183
REMARK   81  A    between atoms: _183  and  _184
REMARK   82  A    between atoms: _190  and  _192
REMARK   83  A    between atoms: _192  and  _193
REMARK   84  A    between atoms: _192  and  _195
REMARK   85  A    between atoms: _195  and  _196
REMARK   86  A    between atoms: _199  and  _201
REMARK   87  A    between atoms: _201  and  _202
REMARK   88  A    between atoms: _201  and  _204
REMARK   89  A    between atoms: _207  and  _209
REMARK   90  A    between atoms: _209  and  _210
REMARK   91  A    between atoms: _209  and  _212
REMARK   92  A    between atoms: _212  and  _213
REMARK   93  A    between atoms: _217  and  _218
REMARK   94  A    between atoms: _223  and  _225
REMARK   95  A    between atoms: _225  and  _226
REMARK   96  A    between atoms: _225  and  _228
REMARK   97  A    between atoms: _228  and  _229
REMARK   98  A    between atoms: _233  and  _234
REMARK   99  A    between atoms: _239  and  _241
REMARK  100  A    between atoms: _241  and  _242
REMARK  101  A    between atoms: _241  and  _244
REMARK  102  A    between atoms: _247  and  _249
REMARK  103  A    between atoms: _249  and  _250
REMARK  104  A    between atoms: _249  and  _252
REMARK  105  A    between atoms: _252  and  _253
REMARK  106  A    between atoms: _258  and  _260
REMARK  107  A    between atoms: _260  and  _261
REMARK  108  A    between atoms: _260  and  _263
REMARK  109  A    between atoms: _263  and  _264
REMARK  110  A    between atoms: _267  and  _269
REMARK  111  A    between atoms: _269  and  _270
REMARK  112  A    between atoms: _269  and  _272
REMARK  113  A    between atoms: _272  and  _273
REMARK  114  A    between atoms: _276  and  _278
REMARK  115  A    between atoms: _278  and  _279
REMARK  116  A    between atoms: _281  and  _283
REMARK  117  A    between atoms: _283  and  _284
REMARK  118  A    between atoms: _283  and  _286
REMARK  119  A    between atoms: _286  and  _287
REMARK  120  A    between atoms: _287  and  _288
REMARK  121  A    between atoms: _288  and  _289
REMARK  122  A    between atoms: _298  and  _300
REMARK  123  A    between atoms: _300  and  _301
REMARK  124  A    between atoms: _300  and  _303
REMARK  125  A    between atoms: _303  and  _304
REMARK  126  A    between atoms: _309  and  _311
REMARK  127  A    between atoms: _311  and  _312
REMARK  128  A    between atoms: _311  and  _314
REMARK  129  A    between atoms: _314  and  _315
REMARK  130  A    between atoms: _315  and  _316
REMARK  131  A    between atoms: _316  and  _317
REMARK  132  A    between atoms: _326  and  _328
REMARK  133  A    between atoms: _328  and  _329
REMARK  134  A    between atoms: _328  and  _331
REMARK  135  A    between atoms: _331  and  _332
REMARK  136  A    between atoms: _335  and  _337
REMARK  137  A    between atoms: _337  and  _338
REMARK  138  A    between atoms: _337  and  _340
REMARK  139  A    between atoms: _340  and  _341
REMARK  140  A    between atoms: _344  and  _346
REMARK  141  A    between atoms: _346  and  _347
REMARK  142  A    between atoms: _346  and  _349
REMARK  143  A    between atoms: _349  and  _350
REMARK  144  A    between atoms: _353  and  _355
REMARK  145  A    between atoms: _355  and  _356
REMARK  146  A    between atoms: _355  and  _358
REMARK  147  A    between atoms: _358  and  _359
REMARK  148  A    between atoms: _362  and  _364
REMARK  149  A    between atoms: _364  and  _365
REMARK  150  A    between atoms: _364  and  _367
REMARK  151  A    between atoms: _367  and  _368
REMARK  152  A    between atoms: _371  and  _373
REMARK  153  A    between atoms: _373  and  _374
REMARK  154  A    between atoms: _376  and  _378
REMARK  155  A    between atoms: _378  and  _379
REMARK  156  A    between atoms: _382  and  _384
REMARK  157  A    between atoms: _384  and  _385
REMARK  158  A    between atoms: _384  and  _387
REMARK  159  A    between atoms: _387  and  _388
REMARK  160  A    between atoms: _391  and  _393
REMARK  161  A    between atoms: _393  and  _394
REMARK  162  A    between atoms: _393  and  _396
REMARK  163  A    between atoms: _396  and  _397
REMARK  164  A    between atoms: _400  and  _402
REMARK  165  A    between atoms: _402  and  _403
REMARK  166  A    between atoms: _402  and  _405
REMARK  167  A    between atoms: _405  and  _406
REMARK  168  A    between atoms: _409  and  _411
REMARK  169  A    between atoms: _411  and  _412
REMARK  170  A    between atoms: _411  and  _414
REMARK  171  A    between atoms: _417  and  _419
REMARK  172  A    between atoms: _419  and  _420
REMARK  173  A    between atoms: _419  and  _422
REMARK  174  A    between atoms: _422  and  _423
REMARK  175  A    between atoms: _426  and  _428
REMARK  176  A    between atoms: _428  and  _429
REMARK  177  A    between atoms: _428  and  _431
REMARK  178  A    between atoms: _431  and  _432
REMARK  179  A    between atoms: _432  and  _433
REMARK  180  A    between atoms: _433  and  _434
REMARK  181  A    between atoms: _434  and  _435
REMARK  182  A    between atoms: _439  and  _441
REMARK  183  A    between atoms: _441  and  _442
REMARK  184  A    between atoms: _441  and  _444
REMARK  185  A    between atoms: _444  and  _445
REMARK  186  A    between atoms: _445  and  _446
REMARK  187  A    between atoms: _448  and  _450
REMARK  188  A    between atoms: _450  and  _451
REMARK  189  A    between atoms: _450  and  _453
REMARK  190  A    between atoms: _453  and  _454
REMARK  191  A    between atoms: _457  and  _459
REMARK  192  A    between atoms: _459  and  _460
REMARK  193  A    between atoms: _462  and  _464
REMARK  194  A    between atoms: _464  and  _465
REMARK  195  A    between atoms: _467  and  _469
REMARK  196  A    between atoms: _469  and  _470
REMARK  197  A    between atoms: _469  and  _472
REMARK  198  A    between atoms: _472  and  _473
REMARK  199  A    between atoms: _476  and  _478
REMARK  200  A    between atoms: _478  and  _479
REMARK  201  A    between atoms: _481  and  _483
REMARK  202  A    between atoms: _483  and  _484
REMARK  203  A    between atoms: _486  and  _488
REMARK  204  A    between atoms: _488  and  _489
REMARK  205  A    between atoms: _488  and  _491
REMARK  206  A    between atoms: _491  and  _492
REMARK  207  A    between atoms: _498  and  _500
REMARK  208  A    between atoms: _500  and  _501
REMARK  209  A    between atoms: _500  and  _503
REMARK  210  A    between atoms: _503  and  _504
REMARK  211  A    between atoms: _507  and  _509
REMARK  212  A    between atoms: _509  and  _510
REMARK  213  A    between atoms: _509  and  _512
REMARK  214  A    between atoms: _515  and  _517
REMARK  215  A    between atoms: _517  and  _518
REMARK  216  A    between atoms: _517  and  _520
REMARK  217  A    between atoms: _520  and  _521
REMARK  218  A    between atoms: _525  and  _526
REMARK  219  A    between atoms: _531  and  _533
REMARK  220  A    between atoms: _533  and  _534
REMARK  221  A    between atoms: _533  and  _536
REMARK  222  A    between atoms: _536  and  _537
REMARK  223  A    between atoms: _541  and  _542
REMARK  224  A    between atoms: _547  and  _549
REMARK  225  A    between atoms: _549  and  _550
REMARK  226  A    between atoms: _549  and  _552
REMARK  227  A    between atoms: _555  and  _557
REMARK  228  A    between atoms: _557  and  _558
REMARK  229  A    between atoms: _557  and  _560
REMARK  230  A    between atoms: _560  and  _561
REMARK  231  A    between atoms: _566  and  _568
REMARK  232  A    between atoms: _568  and  _569
REMARK  233  A    between atoms: _568  and  _571
REMARK  234  A    between atoms: _571  and  _572
REMARK  235  A    between atoms: _575  and  _577
REMARK  236  A    between atoms: _577  and  _578
REMARK  237  A    between atoms: _577  and  _580
REMARK  238  A    between atoms: _580  and  _581
REMARK  239  A    between atoms: _584  and  _586
REMARK  240  A    between atoms: _586  and  _587
REMARK  241  A    between atoms: _589  and  _591
REMARK  242  A    between atoms: _591  and  _592
REMARK  243  A    between atoms: _591  and  _594
REMARK  244  A    between atoms: _594  and  _595
REMARK  245  A    between atoms: _595  and  _596
REMARK  246  A    between atoms: _596  and  _597
REMARK  247  A    between atoms: _606  and  _608
REMARK  248  A    between atoms: _608  and  _609
REMARK  249  A    between atoms: _608  and  _611
REMARK  250  A    between atoms: _611  and  _612
REMARK                            x       y       z     vdW  Elec       q    Type
REMARK                         _______ _______ _______ _____ _____    ______ ____
ROOT
ATOM      1  O   HOH     1      21.801  23.656   4.873  0.00  0.00    +0.000 OA
ENDROOT
TORSDOF 0
REMARK  Name = ../refined-set-2016/1w5x/1w5x_pocket.pdb
REMARK  250 active torsions:
REMARK  status: ('A' for Active; 'I' for Inactive)
REMARK    1  A    between atoms: _1  and  _3
REMARK    2  A    between atoms: _3  and  _4
REMARK    3  A    between atoms: _3  and  _6
REMARK    4  A    between atoms: _6  and  _7
REMARK    5  A    between atoms: _7  and  _8
REMARK    6  A    between atoms: _8  and  _9
REMARK    7  A    between atoms: _18  and  _20
REMARK    8  A    between atoms: _20  and  _21
REMARK    9  A    between atoms: _20  and  _23
REMARK   10  A    between atoms: _23  and  _24
REMARK   11  A    between atoms: _27  and  _29
REMARK   12  A    between atoms: _29  and  _30
REMARK   13  A    between atoms: _29  and  _32
REMARK   14  A    between atoms: _32  and  _33
REMARK   15  A    between atoms: _36  and  _38
REMARK   16  A    between atoms: _38  and  _39
REMARK   17  A    between atoms: _38  and  _41
REMARK   18  A    between atoms: _41  and  _42
REMARK   19  A    between atoms: _45  and  _47
REMARK   20  A    between atoms: _47  and  _48
REMARK   21  A    between atoms: _47  and  _50
REMARK   22  A    between atoms: _50  and  _51
REMARK   23  A    between atoms: _54  and  _56
REMARK   24  A    between atoms: _56  and  _57
REMARK   25  A    between atoms: _56  and  _59
REMARK   26  A    between atoms: _59  and  _60
REMARK   27  A    between atoms: _63  and  _65
REMARK   28  A    between atoms: _65  and  _66
REMARK   29  A    between atoms: _68  and  _70
REMARK   30  A    between atoms: _70  and  _71
REMARK   31  A    between atoms: _74  and  _76
REMARK   32  A    between atoms: _76  and  _77
REMARK   33  A    between atoms: _76  and  _79
REMARK   34  A    between atoms: _79  and  _80
REMARK   35  A    between atoms: _83  and  _85
REMARK   36  A    between atoms: _85  and  _86
REMARK   37  A    between atoms: _85  and  _88
REMARK   38  A    between atoms: _88  and  _89
REMARK   39  A    between atoms: _92  and  _94
REMARK   40  A    between atoms: _94  and  _95
REMARK   41  A    between atoms: _94  and  _97
REMARK   42  A    between atoms: _97  and  _98
REMARK   43  A    between atoms: _101  and  _103
REMARK   44  A    between atoms: _103  and  _104
REMARK   45  A    between atoms: _103  and  _106
REMARK   46  A    between atoms: _109  and  _111
REMARK   47  A    between atoms: _111  and  _112
REMARK   48  A    between atoms: _111  and  _114
REMARK   49  A    between atoms: _114  and  _115
REMARK   50  A    between atoms: _118  and  _120
REMARK   51  A    between atoms: _120  and  _121
REMARK   52  A    between atoms: _120  and  _123
REMARK   53  A    between atoms: _123  and  _124
REMARK   54  A    between atoms: _124  and  _125
REMARK   55  A    between atoms: _125  and  _126
REMARK   56  A    between atoms: _126  and  _127
REMARK   57  A    between atoms: _131  and  _133
REMARK   58  A    between atoms: _133  and  _134
REMARK   59  A    between atoms: _133  and  _136
REMARK   60  A    between atoms: _136  and  _137
REMARK   61  A    between atoms: _137  and  _138
REMARK   62  A    between atoms: _140  and  _142
REMARK   63  A    between atoms: _142  and  _143
REMARK   64  A    between atoms: _142  and  _145
REMARK   65  A    between atoms: _145  and  _146
REMARK   66  A    between atoms: _149  and  _151
REMARK   67  A    between atoms: _151  and  _152
REMARK   68  A    between atoms: _154  and  _156
REMARK   69  A    between atoms: _156  and  _157
REMARK   70  A    between atoms: _159  and  _161
REMARK   71  A    between atoms: _161  and  _162
REMARK   72  A    between atoms: _161  and  _164
REMARK   73  A    between atoms: _164  and  _165
REMARK   74  A    between atoms: _168  and  _170
REMARK   75  A    between atoms: _170  and  _171
REMARK   76  A    between atoms: _173  and  _175
REMARK   77  A    between atoms: _175  and  _176
REMARK   78  A    between atoms: _178  and  _180
REMARK   79  A    between atoms: _180  and  _181
REMARK   80  A    between atoms: _180  and  _183
REMARK   81  A    between atoms: _183  and  _184
REMARK   82  A    between atoms: _190  and  _192
REMARK   83  A    between atoms: _192  and  _193
REMARK   84  A    between atoms: _192  and  _195
REMARK   85  A    between atoms: _195  and  _196
REMARK   86  A    between atoms: _199  and  _201
REMARK   87  A    between atoms: _201  and  _202
REMARK   88  A    between atoms: _201  and  _204
REMARK   89  A    between atoms: _207  and  _209
REMARK   90  A    between atoms: _209  and  _210
REMARK   91  A    between atoms: _209  and  _212
REMARK   92  A    between atoms: _212  and  _213
REMARK   93  A    between atoms: _217  and  _218
REMARK   94  A    between atoms: _223  and  _225
REMARK   95  A    between atoms: _225  and  _226
REMARK   96  A    between atoms: _225  and  _228
REMARK   97  A    between atoms: _228  and  _229
REMARK   98  A    between atoms: _233  and  _234
REMARK   99  A    between atoms: _239  and  _241
REMARK  100  A    between atoms: _241  and  _242
REMARK  101  A    between atoms: _241  and  _244
REMARK  102  A    between atoms: _247  and  _249
REMARK  103  A    between atoms: _249  and  _250
REMARK  104  A    between atoms: _249  and  _252
REMARK  105  A    between atoms: _252  and  _253
REMARK  106  A    between atoms: _258  and  _260
REMARK  107  A    between atoms: _260  and  _261
REMARK  108  A    between atoms: _260  and  _263
REMARK  109  A    between atoms: _263  and  _264
REMARK  110  A    between atoms: _267  and  _269
REMARK  111  A    between atoms: _269  and  _270
REMARK  112  A    between atoms: _269  and  _272
REMARK  113  A    between atoms: _272  and  _273
REMARK  114  A    between atoms: _276  and  _278
REMARK  115  A    between atoms: _278  and  _279
REMARK  116  A    between atoms: _281  and  _283
REMARK  117  A    between atoms: _283  and  _284
REMARK  118  A    between atoms: _283  and  _286
REMARK  119  A    between atoms: _286  and  _287
REMARK  120  A    between atoms: _287  and  _288
REMARK  121  A    between atoms: _288  and  _289
REMARK  122  A    between atoms: _298  and  _300
REMARK  123  A    between atoms: _300  and  _301
REMARK  124  A    between atoms: _300  and  _303
REMARK  125  A    between atoms: _303  and  _304
REMARK  126  A    between atoms: _309  and  _311
REMARK  127  A    between atoms: _311  and  _312
REMARK  128  A    between atoms: _311  and  _314
REMARK  129  A    between atoms: _314  and  _315
REMARK  130  A    between atoms: _315  and  _316
REMARK  131  A    between atoms: _316  and  _317
REMARK  132  A    between atoms: _326  and  _328
REMARK  133  A    between atoms: _328  and  _329
REMARK  134  A    between atoms: _328  and  _331
REMARK  135  A    between atoms: _331  and  _332
REMARK  136  A    between atoms: _335  and  _337
REMARK  137  A    between atoms: _337  and  _338
REMARK  138  A    between atoms: _337  and  _340
REMARK  139  A    between atoms: _340  and  _341
REMARK  140  A    between atoms: _344  and  _346
REMARK  141  A    between atoms: _346  and  _347
REMARK  142  A    between atoms: _346  and  _349
REMARK  143  A    between atoms: _349  and  _350
REMARK  144  A    between atoms: _353  and  _355
REMARK  145  A    between atoms: _355  and  _356
REMARK  146  A    between atoms: _355  and  _358
REMARK  147  A    between atoms: _358  and  _359
REMARK  148  A    between atoms: _362  and  _364
REMARK  149  A    between atoms: _364  and  _365
REMARK  150  A    between atoms: _364  and  _367
REMARK  151  A    between atoms: _367  and  _368
REMARK  152  A    between atoms: _371  and  _373
REMARK  153  A    between atoms: _373  and  _374
REMARK  154  A    between atoms: _376  and  _378
REMARK  155  A    between atoms: _378  and  _379
REMARK  156  A    between atoms: _382  and  _384
REMARK  157  A    between atoms: _384  and  _385
REMARK  158  A    between atoms: _384  and  _387
REMARK  159  A    between atoms: _387  and  _388
REMARK  160  A    between atoms: _391  and  _393
REMARK  161  A    between atoms: _393  and  _394
REMARK  162  A    between atoms: _393  and  _396
REMARK  163  A    between atoms: _396  and  _397
REMARK  164  A    between atoms: _400  and  _402
REMARK  165  A    between atoms: _402  and  _403
REMARK  166  A    between atoms: _402  and  _405
REMARK  167  A    between atoms: _405  and  _406
REMARK  168  A    between atoms: _409  and  _411
REMARK  169  A    between atoms: _411  and  _412
REMARK  170  A    between atoms: _411  and  _414
REMARK  171  A    between atoms: _417  and  _419
REMARK  172  A    between atoms: _419  and  _420
REMARK  173  A    between atoms: _419  and  _422
REMARK  174  A    between atoms: _422  and  _423
REMARK  175  A    between atoms: _426  and  _428
REMARK  176  A    between atoms: _428  and  _429
REMARK  177  A    between atoms: _428  and  _431
REMARK  178  A    between atoms: _431  and  _432
REMARK  179  A    between atoms: _432  and  _433
REMARK  180  A    between atoms: _433  and  _434
REMARK  181  A    between atoms: _434  and  _435
REMARK  182  A    between atoms: _439  and  _441
REMARK  183  A    between atoms: _441  and  _442
REMARK  184  A    between atoms: _441  and  _444
REMARK  185  A    between atoms: _444  and  _445
REMARK  186  A    between atoms: _445  and  _446
REMARK  187  A    between atoms: _448  and  _450
REMARK  188  A    between atoms: _450  and  _451
REMARK  189  A    between atoms: _450  and  _453
REMARK  190  A    between atoms: _453  and  _454
REMARK  191  A    between atoms: _457  and  _459
REMARK  192  A    between atoms: _459  and  _460
REMARK  193  A    between atoms: _462  and  _464
REMARK  194  A    between atoms: _464  and  _465
REMARK  195  A    between atoms: _467  and  _469
REMARK  196  A    between atoms: _469  and  _470
REMARK  197  A    between atoms: _469  and  _472
REMARK  198  A    between atoms: _472  and  _473
REMARK  199  A    between atoms: _476  and  _478
REMARK  200  A    between atoms: _478  and  _479
REMARK  201  A    between atoms: _481  and  _483
REMARK  202  A    between atoms: _483  and  _484
REMARK  203  A    between atoms: _486  and  _488
REMARK  204  A    between atoms: _488  and  _489
REMARK  205  A    between atoms: _488  and  _491
REMARK  206  A    between atoms: _491  and  _492
REMARK  207  A    between atoms: _498  and  _500
REMARK  208  A    between atoms: _500  and  _501
REMARK  209  A    between atoms: _500  and  _503
REMARK  210  A    between atoms: _503  and  _504
REMARK  211  A    between atoms: _507  and  _509
REMARK  212  A    between atoms: _509  and  _510
REMARK  213  A    between atoms: _509  and  _512
REMARK  214  A    between atoms: _515  and  _517
REMARK  215  A    between atoms: _517  and  _518
REMARK  216  A    between atoms: _517  and  _520
REMARK  217  A    between atoms: _520  and  _521
REMARK  218  A    between atoms: _525  and  _526
REMARK  219  A    between atoms: _531  and  _533
REMARK  220  A    between atoms: _533  and  _534
REMARK  221  A    between atoms: _533  and  _536
REMARK  222  A    between atoms: _536  and  _537
REMARK  223  A    between atoms: _541  and  _542
REMARK  224  A    between atoms: _547  and  _549
REMARK  225  A    between atoms: _549  and  _550
REMARK  226  A    between atoms: _549  and  _552
REMARK  227  A    between atoms: _555  and  _557
REMARK  228  A    between atoms: _557  and  _558
REMARK  229  A    between atoms: _557  and  _560
REMARK  230  A    between atoms: _560  and  _561
REMARK  231  A    between atoms: _566  and  _568
REMARK  232  A    between atoms: _568  and  _569
REMARK  233  A    between atoms: _568  and  _571
REMARK  234  A    between atoms: _571  and  _572
REMARK  235  A    between atoms: _575  and  _577
REMARK  236  A    between atoms: _577  and  _578
REMARK  237  A    between atoms: _577  and  _580
REMARK  238  A    between atoms: _580  and  _581
REMARK  239  A    between atoms: _584  and  _586
REMARK  240  A    between atoms: _586  and  _587
REMARK  241  A    between atoms: _589  and  _591
REMARK  242  A    between atoms: _591  and  _592
REMARK  243  A    between atoms: _591  and  _594
REMARK  244  A    between atoms: _594  and  _595
REMARK  245  A    between atoms: _595  and  _596
REMARK  246  A    between atoms: _596  and  _597
REMARK  247  A    between atoms: _606  and  _608
REMARK  248  A    between atoms: _608  and  _609
REMARK  249  A    between atoms: _608  and  _611
REMARK  250  A    between atoms: _611  and  _612
REMARK                            x       y       z     vdW  Elec       q    Type
REMARK                         _______ _______ _______ _____ _____    ______ ____
ROOT
ATOM      1  O   HOH     1      20.561  22.008   6.535  0.00  0.00    +0.000 OA
ENDROOT
TORSDOF 0
REMARK  Name = ../refined-set-2016/1w5x/1w5x_pocket.pdb
REMARK  250 active torsions:
REMARK  status: ('A' for Active; 'I' for Inactive)
REMARK    1  A    between atoms: _1  and  _3
REMARK    2  A    between atoms: _3  and  _4
REMARK    3  A    between atoms: _3  and  _6
REMARK    4  A    between atoms: _6  and  _7
REMARK    5  A    between atoms: _7  and  _8
REMARK    6  A    between atoms: _8  and  _9
REMARK    7  A    between atoms: _18  and  _20
REMARK    8  A    between atoms: _20  and  _21
REMARK    9  A    between atoms: _20  and  _23
REMARK   10  A    between atoms: _23  and  _24
REMARK   11  A    between atoms: _27  and  _29
REMARK   12  A    between atoms: _29  and  _30
REMARK   13  A    between atoms: _29  and  _32
REMARK   14  A    between atoms: _32  and  _33
REMARK   15  A    between atoms: _36  and  _38
REMARK   16  A    between atoms: _38  and  _39
REMARK   17  A    between atoms: _38  and  _41
REMARK   18  A    between atoms: _41  and  _42
REMARK   19  A    between atoms: _45  and  _47
REMARK   20  A    between atoms: _47  and  _48
REMARK   21  A    between atoms: _47  and  _50
REMARK   22  A    between atoms: _50  and  _51
REMARK   23  A    between atoms: _54  and  _56
REMARK   24  A    between atoms: _56  and  _57
REMARK   25  A    between atoms: _56  and  _59
REMARK   26  A    between atoms: _59  and  _60
REMARK   27  A    between atoms: _63  and  _65
REMARK   28  A    between atoms: _65  and  _66
REMARK   29  A    between atoms: _68  and  _70
REMARK   30  A    between atoms: _70  and  _71
REMARK   31  A    between atoms: _74  and  _76
REMARK   32  A    between atoms: _76  and  _77
REMARK   33  A    between atoms: _76  and  _79
REMARK   34  A    between atoms: _79  and  _80
REMARK   35  A    between atoms: _83  and  _85
REMARK   36  A    between atoms: _85  and  _86
REMARK   37  A    between atoms: _85  and  _88
REMARK   38  A    between atoms: _88  and  _89
REMARK   39  A    between atoms: _92  and  _94
REMARK   40  A    between atoms: _94  and  _95
REMARK   41  A    between atoms: _94  and  _97
REMARK   42  A    between atoms: _97  and  _98
REMARK   43  A    between atoms: _101  and  _103
REMARK   44  A    between atoms: _103  and  _104
REMARK   45  A    between atoms: _103  and  _106
REMARK   46  A    between atoms: _109  and  _111
REMARK   47  A    between atoms: _111  and  _112
REMARK   48  A    between atoms: _111  and  _114
REMARK   49  A    between atoms: _114  and  _115
REMARK   50  A    between atoms: _118  and  _120
REMARK   51  A    between atoms: _120  and  _121
REMARK   52  A    between atoms: _120  and  _123
REMARK   53  A    between atoms: _123  and  _124
REMARK   54  A    between atoms: _124  and  _125
REMARK   55  A    between atoms: _125  and  _126
REMARK   56  A    between atoms: _126  and  _127
REMARK   57  A    between atoms: _131  and  _133
REMARK   58  A    between atoms: _133  and  _134
REMARK   59  A    between atoms: _133  and  _136
REMARK   60  A    between atoms: _136  and  _137
REMARK   61  A    between atoms: _137  and  _138
REMARK   62  A    between atoms: _140  and  _142
REMARK   63  A    between atoms: _142  and  _143
REMARK   64  A    between atoms: _142  and  _145
REMARK   65  A    between atoms: _145  and  _146
REMARK   66  A    between atoms: _149  and  _151
REMARK   67  A    between atoms: _151  and  _152
REMARK   68  A    between atoms: _154  and  _156
REMARK   69  A    between atoms: _156  and  _157
REMARK   70  A    between atoms: _159  and  _161
REMARK   71  A    between atoms: _161  and  _162
REMARK   72  A    between atoms: _161  and  _164
REMARK   73  A    between atoms: _164  and  _165
REMARK   74  A    between atoms: _168  and  _170
REMARK   75  A    between atoms: _170  and  _171
REMARK   76  A    between atoms: _173  and  _175
REMARK   77  A    between atoms: _175  and  _176
REMARK   78  A    between atoms: _178  and  _180
REMARK   79  A    between atoms: _180  and  _181
REMARK   80  A    between atoms: _180  and  _183
REMARK   81  A    between atoms: _183  and  _184
REMARK   82  A    between atoms: _190  and  _192
REMARK   83  A    between atoms: _192  and  _193
REMARK   84  A    between atoms: _192  and  _195
REMARK   85  A    between atoms: _195  and  _196
REMARK   86  A    between atoms: _199  and  _201
REMARK   87  A    between atoms: _201  and  _202
REMARK   88  A    between atoms: _201  and  _204
REMARK   89  A    between atoms: _207  and  _209
REMARK   90  A    between atoms: _209  and  _210
REMARK   91  A    between atoms: _209  and  _212
REMARK   92  A    between atoms: _212  and  _213
REMARK   93  A    between atoms: _217  and  _218
REMARK   94  A    between atoms: _223  and  _225
REMARK   95  A    between atoms: _225  and  _226
REMARK   96  A    between atoms: _225  and  _228
REMARK   97  A    between atoms: _228  and  _229
REMARK   98  A    between atoms: _233  and  _234
REMARK   99  A    between atoms: _239  and  _241
REMARK  100  A    between atoms: _241  and  _242
REMARK  101  A    between atoms: _241  and  _244
REMARK  102  A    between atoms: _247  and  _249
REMARK  103  A    between atoms: _249  and  _250
REMARK  104  A    between atoms: _249  and  _252
REMARK  105  A    between atoms: _252  and  _253
REMARK  106  A    between atoms: _258  and  _260
REMARK  107  A    between atoms: _260  and  _261
REMARK  108  A    between atoms: _260  and  _263
REMARK  109  A    between atoms: _263  and  _264
REMARK  110  A    between atoms: _267  and  _269
REMARK  111  A    between atoms: _269  and  _270
REMARK  112  A    between atoms: _269  and  _272
REMARK  113  A    between atoms: _272  and  _273
REMARK  114  A    between atoms: _276  and  _278
REMARK  115  A    between atoms: _278  and  _279
REMARK  116  A    between atoms: _281  and  _283
REMARK  117  A    between atoms: _283  and  _284
REMARK  118  A    between atoms: _283  and  _286
REMARK  119  A    between atoms: _286  and  _287
REMARK  120  A    between atoms: _287  and  _288
REMARK  121  A    between atoms: _288  and  _289
REMARK  122  A    between atoms: _298  and  _300
REMARK  123  A    between atoms: _300  and  _301
REMARK  124  A    between atoms: _300  and  _303
REMARK  125  A    between atoms: _303  and  _304
REMARK  126  A    between atoms: _309  and  _311
REMARK  127  A    between atoms: _311  and  _312
REMARK  128  A    between atoms: _311  and  _314
REMARK  129  A    between atoms: _314  and  _315
REMARK  130  A    between atoms: _315  and  _316
REMARK  131  A    between atoms: _316  and  _317
REMARK  132  A    between atoms: _326  and  _328
REMARK  133  A    between atoms: _328  and  _329
REMARK  134  A    between atoms: _328  and  _331
REMARK  135  A    between atoms: _331  and  _332
REMARK  136  A    between atoms: _335  and  _337
REMARK  137  A    between atoms: _337  and  _338
REMARK  138  A    between atoms: _337  and  _340
REMARK  139  A    between atoms: _340  and  _341
REMARK  140  A    between atoms: _344  and  _346
REMARK  141  A    between atoms: _346  and  _347
REMARK  142  A    between atoms: _346  and  _349
REMARK  143  A    between atoms: _349  and  _350
REMARK  144  A    between atoms: _353  and  _355
REMARK  145  A    between atoms: _355  and  _356
REMARK  146  A    between atoms: _355  and  _358
REMARK  147  A    between atoms: _358  and  _359
REMARK  148  A    between atoms: _362  and  _364
REMARK  149  A    between atoms: _364  and  _365
REMARK  150  A    between atoms: _364  and  _367
REMARK  151  A    between atoms: _367  and  _368
REMARK  152  A    between atoms: _371  and  _373
REMARK  153  A    between atoms: _373  and  _374
REMARK  154  A    between atoms: _376  and  _378
REMARK  155  A    between atoms: _378  and  _379
REMARK  156  A    between atoms: _382  and  _384
REMARK  157  A    between atoms: _384  and  _385
REMARK  158  A    between atoms: _384  and  _387
REMARK  159  A    between atoms: _387  and  _388
REMARK  160  A    between atoms: _391  and  _393
REMARK  161  A    between atoms: _393  and  _394
REMARK  162  A    between atoms: _393  and  _396
REMARK  163  A    between atoms: _396  and  _397
REMARK  164  A    between atoms: _400  and  _402
REMARK  165  A    between atoms: _402  and  _403
REMARK  166  A    between atoms: _402  and  _405
REMARK  167  A    between atoms: _405  and  _406
REMARK  168  A    between atoms: _409  and  _411
REMARK  169  A    between atoms: _411  and  _412
REMARK  170  A    between atoms: _411  and  _414
REMARK  171  A    between atoms: _417  and  _419
REMARK  172  A    between atoms: _419  and  _420
REMARK  173  A    between atoms: _419  and  _422
REMARK  174  A    between atoms: _422  and  _423
REMARK  175  A    between atoms: _426  and  _428
REMARK  176  A    between atoms: _428  and  _429
REMARK  177  A    between atoms: _428  and  _431
REMARK  178  A    between atoms: _431  and  _432
REMARK  179  A    between atoms: _432  and  _433
REMARK  180  A    between atoms: _433  and  _434
REMARK  181  A    between atoms: _434  and  _435
REMARK  182  A    between atoms: _439  and  _441
REMARK  183  A    between atoms: _441  and  _442
REMARK  184  A    between atoms: _441  and  _444
REMARK  185  A    between atoms: _444  and  _445
REMARK  186  A    between atoms: _445  and  _446
REMARK  187  A    between atoms: _448  and  _450
REMARK  188  A    between atoms: _450  and  _451
REMARK  189  A    between atoms: _450  and  _453
REMARK  190  A    between atoms: _453  and  _454
REMARK  191  A    between atoms: _457  and  _459
REMARK  192  A    between atoms: _459  and  _460
REMARK  193  A    between atoms: _462  and  _464
REMARK  194  A    between atoms: _464  and  _465
REMARK  195  A    between atoms: _467  and  _469
REMARK  196  A    between atoms: _469  and  _470
REMARK  197  A    between atoms: _469  and  _472
REMARK  198  A    between atoms: _472  and  _473
REMARK  199  A    between atoms: _476  and  _478
REMARK  200  A    between atoms: _478  and  _479
REMARK  201  A    between atoms: _481  and  _483
REMARK  202  A    between atoms: _483  and  _484
REMARK  203  A    between atoms: _486  and  _488
REMARK  204  A    between atoms: _488  and  _489
REMARK  205  A    between atoms: _488  and  _491
REMARK  206  A    between atoms: _491  and  _492
REMARK  207  A    between atoms: _498  and  _500
REMARK  208  A    between atoms: _500  and  _501
REMARK  209  A    between atoms: _500  and  _503
REMARK  210  A    between atoms: _503  and  _504
REMARK  211  A    between atoms: _507  and  _509
REMARK  212  A    between atoms: _509  and  _510
REMARK  213  A    between atoms: _509  and  _512
REMARK  214  A    between atoms: _515  and  _517
REMARK  215  A    between atoms: _517  and  _518
REMARK  216  A    between atoms: _517  and  _520
REMARK  217  A    between atoms: _520  and  _521
REMARK  218  A    between atoms: _525  and  _526
REMARK  219  A    between atoms: _531  and  _533
REMARK  220  A    between atoms: _533  and  _534
REMARK  221  A    between atoms: _533  and  _536
REMARK  222  A    between atoms: _536  and  _537
REMARK  223  A    between atoms: _541  and  _542
REMARK  224  A    between atoms: _547  and  _549
REMARK  225  A    between atoms: _549  and  _550
REMARK  226  A    between atoms: _549  and  _552
REMARK  227  A    between atoms: _555  and  _557
REMARK  228  A    between atoms: _557  and  _558
REMARK  229  A    between atoms: _557  and  _560
REMARK  230  A    between atoms: _560  and  _561
REMARK  231  A    between atoms: _566  and  _568
REMARK  232  A    between atoms: _568  and  _569
REMARK  233  A    between atoms: _568  and  _571
REMARK  234  A    between atoms: _571  and  _572
REMARK  235  A    between atoms: _575  and  _577
REMARK  236  A    between atoms: _577  and  _578
REMARK  237  A    between atoms: _577  and  _580
REMARK  238  A    between atoms: _580  and  _581
REMARK  239  A    between atoms: _584  and  _586
REMARK  240  A    between atoms: _586  and  _587
REMARK  241  A    between atoms: _589  and  _591
REMARK  242  A    between atoms: _591  and  _592
REMARK  243  A    between atoms: _591  and  _594
REMARK  244  A    between atoms: _594  and  _595
REMARK  245  A    between atoms: _595  and  _596
REMARK  246  A    between atoms: _596  and  _597
REMARK  247  A    between atoms: _606  and  _608
REMARK  248  A    between atoms: _608  and  _609
REMARK  249  A    between atoms: _608  and  _611
REMARK  250  A    between atoms: _611  and  _612
REMARK                            x       y       z     vdW  Elec       q    Type
REMARK                         _______ _______ _______ _____ _____    ______ ____
ROOT
ATOM      1  O   HOH     1      21.989  15.668   5.154  0.00  0.00    +0.000 OA
ENDROOT
TORSDOF 0
REMARK  Name = ../refined-set-2016/1w5x/1w5x_pocket.pdb
REMARK  250 active torsions:
REMARK  status: ('A' for Active; 'I' for Inactive)
REMARK    1  A    between atoms: _1  and  _3
REMARK    2  A    between atoms: _3  and  _4
REMARK    3  A    between atoms: _3  and  _6
REMARK    4  A    between atoms: _6  and  _7
REMARK    5  A    between atoms: _7  and  _8
REMARK    6  A    between atoms: _8  and  _9
REMARK    7  A    between atoms: _18  and  _20
REMARK    8  A    between atoms: _20  and  _21
REMARK    9  A    between atoms: _20  and  _23
REMARK   10  A    between atoms: _23  and  _24
REMARK   11  A    between atoms: _27  and  _29
REMARK   12  A    between atoms: _29  and  _30
REMARK   13  A    between atoms: _29  and  _32
REMARK   14  A    between atoms: _32  and  _33
REMARK   15  A    between atoms: _36  and  _38
REMARK   16  A    between atoms: _38  and  _39
REMARK   17  A    between atoms: _38  and  _41
REMARK   18  A    between atoms: _41  and  _42
REMARK   19  A    between atoms: _45  and  _47
REMARK   20  A    between atoms: _47  and  _48
REMARK   21  A    between atoms: _47  and  _50
REMARK   22  A    between atoms: _50  and  _51
REMARK   23  A    between atoms: _54  and  _56
REMARK   24  A    between atoms: _56  and  _57
REMARK   25  A    between atoms: _56  and  _59
REMARK   26  A    between atoms: _59  and  _60
REMARK   27  A    between atoms: _63  and  _65
REMARK   28  A    between atoms: _65  and  _66
REMARK   29  A    between atoms: _68  and  _70
REMARK   30  A    between atoms: _70  and  _71
REMARK   31  A    between atoms: _74  and  _76
REMARK   32  A    between atoms: _76  and  _77
REMARK   33  A    between atoms: _76  and  _79
REMARK   34  A    between atoms: _79  and  _80
REMARK   35  A    between atoms: _83  and  _85
REMARK   36  A    between atoms: _85  and  _86
REMARK   37  A    between atoms: _85  and  _88
REMARK   38  A    between atoms: _88  and  _89
REMARK   39  A    between atoms: _92  and  _94
REMARK   40  A    between atoms: _94  and  _95
REMARK   41  A    between atoms: _94  and  _97
REMARK   42  A    between atoms: _97  and  _98
REMARK   43  A    between atoms: _101  and  _103
REMARK   44  A    between atoms: _103  and  _104
REMARK   45  A    between atoms: _103  and  _106
REMARK   46  A    between atoms: _109  and  _111
REMARK   47  A    between atoms: _111  and  _112
REMARK   48  A    between atoms: _111  and  _114
REMARK   49  A    between atoms: _114  and  _115
REMARK   50  A    between atoms: _118  and  _120
REMARK   51  A    between atoms: _120  and  _121
REMARK   52  A    between atoms: _120  and  _123
REMARK   53  A    between atoms: _123  and  _124
REMARK   54  A    between atoms: _124  and  _125
REMARK   55  A    between atoms: _125  and  _126
REMARK   56  A    between atoms: _126  and  _127
REMARK   57  A    between atoms: _131  and  _133
REMARK   58  A    between atoms: _133  and  _134
REMARK   59  A    between atoms: _133  and  _136
REMARK   60  A    between atoms: _136  and  _137
REMARK   61  A    between atoms: _137  and  _138
REMARK   62  A    between atoms: _140  and  _142
REMARK   63  A    between atoms: _142  and  _143
REMARK   64  A    between atoms: _142  and  _145
REMARK   65  A    between atoms: _145  and  _146
REMARK   66  A    between atoms: _149  and  _151
REMARK   67  A    between atoms: _151  and  _152
REMARK   68  A    between atoms: _154  and  _156
REMARK   69  A    between atoms: _156  and  _157
REMARK   70  A    between atoms: _159  and  _161
REMARK   71  A    between atoms: _161  and  _162
REMARK   72  A    between atoms: _161  and  _164
REMARK   73  A    between atoms: _164  and  _165
REMARK   74  A    between atoms: _168  and  _170
REMARK   75  A    between atoms: _170  and  _171
REMARK   76  A    between atoms: _173  and  _175
REMARK   77  A    between atoms: _175  and  _176
REMARK   78  A    between atoms: _178  and  _180
REMARK   79  A    between atoms: _180  and  _181
REMARK   80  A    between atoms: _180  and  _183
REMARK   81  A    between atoms: _183  and  _184
REMARK   82  A    between atoms: _190  and  _192
REMARK   83  A    between atoms: _192  and  _193
REMARK   84  A    between atoms: _192  and  _195
REMARK   85  A    between atoms: _195  and  _196
REMARK   86  A    between atoms: _199  and  _201
REMARK   87  A    between atoms: _201  and  _202
REMARK   88  A    between atoms: _201  and  _204
REMARK   89  A    between atoms: _207  and  _209
REMARK   90  A    between atoms: _209  and  _210
REMARK   91  A    between atoms: _209  and  _212
REMARK   92  A    between atoms: _212  and  _213
REMARK   93  A    between atoms: _217  and  _218
REMARK   94  A    between atoms: _223  and  _225
REMARK   95  A    between atoms: _225  and  _226
REMARK   96  A    between atoms: _225  and  _228
REMARK   97  A    between atoms: _228  and  _229
REMARK   98  A    between atoms: _233  and  _234
REMARK   99  A    between atoms: _239  and  _241
REMARK  100  A    between atoms: _241  and  _242
REMARK  101  A    between atoms: _241  and  _244
REMARK  102  A    between atoms: _247  and  _249
REMARK  103  A    between atoms: _249  and  _250
REMARK  104  A    between atoms: _249  and  _252
REMARK  105  A    between atoms: _252  and  _253
REMARK  106  A    between atoms: _258  and  _260
REMARK  107  A    between atoms: _260  and  _261
REMARK  108  A    between atoms: _260  and  _263
REMARK  109  A    between atoms: _263  and  _264
REMARK  110  A    between atoms: _267  and  _269
REMARK  111  A    between atoms: _269  and  _270
REMARK  112  A    between atoms: _269  and  _272
REMARK  113  A    between atoms: _272  and  _273
REMARK  114  A    between atoms: _276  and  _278
REMARK  115  A    between atoms: _278  and  _279
REMARK  116  A    between atoms: _281  and  _283
REMARK  117  A    between atoms: _283  and  _284
REMARK  118  A    between atoms: _283  and  _286
REMARK  119  A    between atoms: _286  and  _287
REMARK  120  A    between atoms: _287  and  _288
REMARK  121  A    between atoms: _288  and  _289
REMARK  122  A    between atoms: _298  and  _300
REMARK  123  A    between atoms: _300  and  _301
REMARK  124  A    between atoms: _300  and  _303
REMARK  125  A    between atoms: _303  and  _304
REMARK  126  A    between atoms: _309  and  _311
REMARK  127  A    between atoms: _311  and  _312
REMARK  128  A    between atoms: _311  and  _314
REMARK  129  A    between atoms: _314  and  _315
REMARK  130  A    between atoms: _315  and  _316
REMARK  131  A    between atoms: _316  and  _317
REMARK  132  A    between atoms: _326  and  _328
REMARK  133  A    between atoms: _328  and  _329
REMARK  134  A    between atoms: _328  and  _331
REMARK  135  A    between atoms: _331  and  _332
REMARK  136  A    between atoms: _335  and  _337
REMARK  137  A    between atoms: _337  and  _338
REMARK  138  A    between atoms: _337  and  _340
REMARK  139  A    between atoms: _340  and  _341
REMARK  140  A    between atoms: _344  and  _346
REMARK  141  A    between atoms: _346  and  _347
REMARK  142  A    between atoms: _346  and  _349
REMARK  143  A    between atoms: _349  and  _350
REMARK  144  A    between atoms: _353  and  _355
REMARK  145  A    between atoms: _355  and  _356
REMARK  146  A    between atoms: _355  and  _358
REMARK  147  A    between atoms: _358  and  _359
REMARK  148  A    between atoms: _362  and  _364
REMARK  149  A    between atoms: _364  and  _365
REMARK  150  A    between atoms: _364  and  _367
REMARK  151  A    between atoms: _367  and  _368
REMARK  152  A    between atoms: _371  and  _373
REMARK  153  A    between atoms: _373  and  _374
REMARK  154  A    between atoms: _376  and  _378
REMARK  155  A    between atoms: _378  and  _379
REMARK  156  A    between atoms: _382  and  _384
REMARK  157  A    between atoms: _384  and  _385
REMARK  158  A    between atoms: _384  and  _387
REMARK  159  A    between atoms: _387  and  _388
REMARK  160  A    between atoms: _391  and  _393
REMARK  161  A    between atoms: _393  and  _394
REMARK  162  A    between atoms: _393  and  _396
REMARK  163  A    between atoms: _396  and  _397
REMARK  164  A    between atoms: _400  and  _402
REMARK  165  A    between atoms: _402  and  _403
REMARK  166  A    between atoms: _402  and  _405
REMARK  167  A    between atoms: _405  and  _406
REMARK  168  A    between atoms: _409  and  _411
REMARK  169  A    between atoms: _411  and  _412
REMARK  170  A    between atoms: _411  and  _414
REMARK  171  A    between atoms: _417  and  _419
REMARK  172  A    between atoms: _419  and  _420
REMARK  173  A    between atoms: _419  and  _422
REMARK  174  A    between atoms: _422  and  _423
REMARK  175  A    between atoms: _426  and  _428
REMARK  176  A    between atoms: _428  and  _429
REMARK  177  A    between atoms: _428  and  _431
REMARK  178  A    between atoms: _431  and  _432
REMARK  179  A    between atoms: _432  and  _433
REMARK  180  A    between atoms: _433  and  _434
REMARK  181  A    between atoms: _434  and  _435
REMARK  182  A    between atoms: _439  and  _441
REMARK  183  A    between atoms: _441  and  _442
REMARK  184  A    between atoms: _441  and  _444
REMARK  185  A    between atoms: _444  and  _445
REMARK  186  A    between atoms: _445  and  _446
REMARK  187  A    between atoms: _448  and  _450
REMARK  188  A    between atoms: _450  and  _451
REMARK  189  A    between atoms: _450  and  _453
REMARK  190  A    between atoms: _453  and  _454
REMARK  191  A    between atoms: _457  and  _459
REMARK  192  A    between atoms: _459  and  _460
REMARK  193  A    between atoms: _462  and  _464
REMARK  194  A    between atoms: _464  and  _465
REMARK  195  A    between atoms: _467  and  _469
REMARK  196  A    between atoms: _469  and  _470
REMARK  197  A    between atoms: _469  and  _472
REMARK  198  A    between atoms: _472  and  _473
REMARK  199  A    between atoms: _476  and  _478
REMARK  200  A    between atoms: _478  and  _479
REMARK  201  A    between atoms: _481  and  _483
REMARK  202  A    between atoms: _483  and  _484
REMARK  203  A    between atoms: _486  and  _488
REMARK  204  A    between atoms: _488  and  _489
REMARK  205  A    between atoms: _488  and  _491
REMARK  206  A    between atoms: _491  and  _492
REMARK  207  A    between atoms: _498  and  _500
REMARK  208  A    between atoms: _500  and  _501
REMARK  209  A    between atoms: _500  and  _503
REMARK  210  A    between atoms: _503  and  _504
REMARK  211  A    between atoms: _507  and  _509
REMARK  212  A    between atoms: _509  and  _510
REMARK  213  A    between atoms: _509  and  _512
REMARK  214  A    between atoms: _515  and  _517
REMARK  215  A    between atoms: _517  and  _518
REMARK  216  A    between atoms: _517  and  _520
REMARK  217  A    between atoms: _520  and  _521
REMARK  218  A    between atoms: _525  and  _526
REMARK  219  A    between atoms: _531  and  _533
REMARK  220  A    between atoms: _533  and  _534
REMARK  221  A    between atoms: _533  and  _536
REMARK  222  A    between atoms: _536  and  _537
REMARK  223  A    between atoms: _541  and  _542
REMARK  224  A    between atoms: _547  and  _549
REMARK  225  A    between atoms: _549  and  _550
REMARK  226  A    between atoms: _549  and  _552
REMARK  227  A    between atoms: _555  and  _557
REMARK  228  A    between atoms: _557  and  _558
REMARK  229  A    between atoms: _557  and  _560
REMARK  230  A    between atoms: _560  and  _561
REMARK  231  A    between atoms: _566  and  _568
REMARK  232  A    between atoms: _568  and  _569
REMARK  233  A    between atoms: _568  and  _571
REMARK  234  A    between atoms: _571  and  _572
REMARK  235  A    between atoms: _575  and  _577
REMARK  236  A    between atoms: _577  and  _578
REMARK  237  A    between atoms: _577  and  _580
REMARK  238  A    between atoms: _580  and  _581
REMARK  239  A    between atoms: _584  and  _586
REMARK  240  A    between atoms: _586  and  _587
REMARK  241  A    between atoms: _589  and  _591
REMARK  242  A    between atoms: _591  and  _592
REMARK  243  A    between atoms: _591  and  _594
REMARK  244  A    between atoms: _594  and  _595
REMARK  245  A    between atoms: _595  and  _596
REMARK  246  A    between atoms: _596  and  _597
REMARK  247  A    between atoms: _606  and  _608
REMARK  248  A    between atoms: _608  and  _609
REMARK  249  A    between atoms: _608  and  _611
REMARK  250  A    between atoms: _611  and  _612
REMARK                            x       y       z     vdW  Elec       q    Type
REMARK                         _______ _______ _______ _____ _____    ______ ____
ROOT
ATOM      1  O   HOH     1      24.980  19.351   0.483  0.00  0.00    +0.000 OA
ENDROOT
TORSDOF 0
REMARK  Name = ../refined-set-2016/1w5x/1w5x_pocket.pdb
REMARK  250 active torsions:
REMARK  status: ('A' for Active; 'I' for Inactive)
REMARK    1  A    between atoms: _1  and  _3
REMARK    2  A    between atoms: _3  and  _4
REMARK    3  A    between atoms: _3  and  _6
REMARK    4  A    between atoms: _6  and  _7
REMARK    5  A    between atoms: _7  and  _8
REMARK    6  A    between atoms: _8  and  _9
REMARK    7  A    between atoms: _18  and  _20
REMARK    8  A    between atoms: _20  and  _21
REMARK    9  A    between atoms: _20  and  _23
REMARK   10  A    between atoms: _23  and  _24
REMARK   11  A    between atoms: _27  and  _29
REMARK   12  A    between atoms: _29  and  _30
REMARK   13  A    between atoms: _29  and  _32
REMARK   14  A    between atoms: _32  and  _33
REMARK   15  A    between atoms: _36  and  _38
REMARK   16  A    between atoms: _38  and  _39
REMARK   17  A    between atoms: _38  and  _41
REMARK   18  A    between atoms: _41  and  _42
REMARK   19  A    between atoms: _45  and  _47
REMARK   20  A    between atoms: _47  and  _48
REMARK   21  A    between atoms: _47  and  _50
REMARK   22  A    between atoms: _50  and  _51
REMARK   23  A    between atoms: _54  and  _56
REMARK   24  A    between atoms: _56  and  _57
REMARK   25  A    between atoms: _56  and  _59
REMARK   26  A    between atoms: _59  and  _60
REMARK   27  A    between atoms: _63  and  _65
REMARK   28  A    between atoms: _65  and  _66
REMARK   29  A    between atoms: _68  and  _70
REMARK   30  A    between atoms: _70  and  _71
REMARK   31  A    between atoms: _74  and  _76
REMARK   32  A    between atoms: _76  and  _77
REMARK   33  A    between atoms: _76  and  _79
REMARK   34  A    between atoms: _79  and  _80
REMARK   35  A    between atoms: _83  and  _85
REMARK   36  A    between atoms: _85  and  _86
REMARK   37  A    between atoms: _85  and  _88
REMARK   38  A    between atoms: _88  and  _89
REMARK   39  A    between atoms: _92  and  _94
REMARK   40  A    between atoms: _94  and  _95
REMARK   41  A    between atoms: _94  and  _97
REMARK   42  A    between atoms: _97  and  _98
REMARK   43  A    between atoms: _101  and  _103
REMARK   44  A    between atoms: _103  and  _104
REMARK   45  A    between atoms: _103  and  _106
REMARK   46  A    between atoms: _109  and  _111
REMARK   47  A    between atoms: _111  and  _112
REMARK   48  A    between atoms: _111  and  _114
REMARK   49  A    between atoms: _114  and  _115
REMARK   50  A    between atoms: _118  and  _120
REMARK   51  A    between atoms: _120  and  _121
REMARK   52  A    between atoms: _120  and  _123
REMARK   53  A    between atoms: _123  and  _124
REMARK   54  A    between atoms: _124  and  _125
REMARK   55  A    between atoms: _125  and  _126
REMARK   56  A    between atoms: _126  and  _127
REMARK   57  A    between atoms: _131  and  _133
REMARK   58  A    between atoms: _133  and  _134
REMARK   59  A    between atoms: _133  and  _136
REMARK   60  A    between atoms: _136  and  _137
REMARK   61  A    between atoms: _137  and  _138
REMARK   62  A    between atoms: _140  and  _142
REMARK   63  A    between atoms: _142  and  _143
REMARK   64  A    between atoms: _142  and  _145
REMARK   65  A    between atoms: _145  and  _146
REMARK   66  A    between atoms: _149  and  _151
REMARK   67  A    between atoms: _151  and  _152
REMARK   68  A    between atoms: _154  and  _156
REMARK   69  A    between atoms: _156  and  _157
REMARK   70  A    between atoms: _159  and  _161
REMARK   71  A    between atoms: _161  and  _162
REMARK   72  A    between atoms: _161  and  _164
REMARK   73  A    between atoms: _164  and  _165
REMARK   74  A    between atoms: _168  and  _170
REMARK   75  A    between atoms: _170  and  _171
REMARK   76  A    between atoms: _173  and  _175
REMARK   77  A    between atoms: _175  and  _176
REMARK   78  A    between atoms: _178  and  _180
REMARK   79  A    between atoms: _180  and  _181
REMARK   80  A    between atoms: _180  and  _183
REMARK   81  A    between atoms: _183  and  _184
REMARK   82  A    between atoms: _190  and  _192
REMARK   83  A    between atoms: _192  and  _193
REMARK   84  A    between atoms: _192  and  _195
REMARK   85  A    between atoms: _195  and  _196
REMARK   86  A    between atoms: _199  and  _201
REMARK   87  A    between atoms: _201  and  _202
REMARK   88  A    between atoms: _201  and  _204
REMARK   89  A    between atoms: _207  and  _209
REMARK   90  A    between atoms: _209  and  _210
REMARK   91  A    between atoms: _209  and  _212
REMARK   92  A    between atoms: _212  and  _213
REMARK   93  A    between atoms: _217  and  _218
REMARK   94  A    between atoms: _223  and  _225
REMARK   95  A    between atoms: _225  and  _226
REMARK   96  A    between atoms: _225  and  _228
REMARK   97  A    between atoms: _228  and  _229
REMARK   98  A    between atoms: _233  and  _234
REMARK   99  A    between atoms: _239  and  _241
REMARK  100  A    between atoms: _241  and  _242
REMARK  101  A    between atoms: _241  and  _244
REMARK  102  A    between atoms: _247  and  _249
REMARK  103  A    between atoms: _249  and  _250
REMARK  104  A    between atoms: _249  and  _252
REMARK  105  A    between atoms: _252  and  _253
REMARK  106  A    between atoms: _258  and  _260
REMARK  107  A    between atoms: _260  and  _261
REMARK  108  A    between atoms: _260  and  _263
REMARK  109  A    between atoms: _263  and  _264
REMARK  110  A    between atoms: _267  and  _269
REMARK  111  A    between atoms: _269  and  _270
REMARK  112  A    between atoms: _269  and  _272
REMARK  113  A    between atoms: _272  and  _273
REMARK  114  A    between atoms: _276  and  _278
REMARK  115  A    between atoms: _278  and  _279
REMARK  116  A    between atoms: _281  and  _283
REMARK  117  A    between atoms: _283  and  _284
REMARK  118  A    between atoms: _283  and  _286
REMARK  119  A    between atoms: _286  and  _287
REMARK  120  A    between atoms: _287  and  _288
REMARK  121  A    between atoms: _288  and  _289
REMARK  122  A    between atoms: _298  and  _300
REMARK  123  A    between atoms: _300  and  _301
REMARK  124  A    between atoms: _300  and  _303
REMARK  125  A    between atoms: _303  and  _304
REMARK  126  A    between atoms: _309  and  _311
REMARK  127  A    between atoms: _311  and  _312
REMARK  128  A    between atoms: _311  and  _314
REMARK  129  A    between atoms: _314  and  _315
REMARK  130  A    between atoms: _315  and  _316
REMARK  131  A    between atoms: _316  and  _317
REMARK  132  A    between atoms: _326  and  _328
REMARK  133  A    between atoms: _328  and  _329
REMARK  134  A    between atoms: _328  and  _331
REMARK  135  A    between atoms: _331  and  _332
REMARK  136  A    between atoms: _335  and  _337
REMARK  137  A    between atoms: _337  and  _338
REMARK  138  A    between atoms: _337  and  _340
REMARK  139  A    between atoms: _340  and  _341
REMARK  140  A    between atoms: _344  and  _346
REMARK  141  A    between atoms: _346  and  _347
REMARK  142  A    between atoms: _346  and  _349
REMARK  143  A    between atoms: _349  and  _350
REMARK  144  A    between atoms: _353  and  _355
REMARK  145  A    between atoms: _355  and  _356
REMARK  146  A    between atoms: _355  and  _358
REMARK  147  A    between atoms: _358  and  _359
REMARK  148  A    between atoms: _362  and  _364
REMARK  149  A    between atoms: _364  and  _365
REMARK  150  A    between atoms: _364  and  _367
REMARK  151  A    between atoms: _367  and  _368
REMARK  152  A    between atoms: _371  and  _373
REMARK  153  A    between atoms: _373  and  _374
REMARK  154  A    between atoms: _376  and  _378
REMARK  155  A    between atoms: _378  and  _379
REMARK  156  A    between atoms: _382  and  _384
REMARK  157  A    between atoms: _384  and  _385
REMARK  158  A    between atoms: _384  and  _387
REMARK  159  A    between atoms: _387  and  _388
REMARK  160  A    between atoms: _391  and  _393
REMARK  161  A    between atoms: _393  and  _394
REMARK  162  A    between atoms: _393  and  _396
REMARK  163  A    between atoms: _396  and  _397
REMARK  164  A    between atoms: _400  and  _402
REMARK  165  A    between atoms: _402  and  _403
REMARK  166  A    between atoms: _402  and  _405
REMARK  167  A    between atoms: _405  and  _406
REMARK  168  A    between atoms: _409  and  _411
REMARK  169  A    between atoms: _411  and  _412
REMARK  170  A    between atoms: _411  and  _414
REMARK  171  A    between atoms: _417  and  _419
REMARK  172  A    between atoms: _419  and  _420
REMARK  173  A    between atoms: _419  and  _422
REMARK  174  A    between atoms: _422  and  _423
REMARK  175  A    between atoms: _426  and  _428
REMARK  176  A    between atoms: _428  and  _429
REMARK  177  A    between atoms: _428  and  _431
REMARK  178  A    between atoms: _431  and  _432
REMARK  179  A    between atoms: _432  and  _433
REMARK  180  A    between atoms: _433  and  _434
REMARK  181  A    between atoms: _434  and  _435
REMARK  182  A    between atoms: _439  and  _441
REMARK  183  A    between atoms: _441  and  _442
REMARK  184  A    between atoms: _441  and  _444
REMARK  185  A    between atoms: _444  and  _445
REMARK  186  A    between atoms: _445  and  _446
REMARK  187  A    between atoms: _448  and  _450
REMARK  188  A    between atoms: _450  and  _451
REMARK  189  A    between atoms: _450  and  _453
REMARK  190  A    between atoms: _453  and  _454
REMARK  191  A    between atoms: _457  and  _459
REMARK  192  A    between atoms: _459  and  _460
REMARK  193  A    between atoms: _462  and  _464
REMARK  194  A    between atoms: _464  and  _465
REMARK  195  A    between atoms: _467  and  _469
REMARK  196  A    between atoms: _469  and  _470
REMARK  197  A    between atoms: _469  and  _472
REMARK  198  A    between atoms: _472  and  _473
REMARK  199  A    between atoms: _476  and  _478
REMARK  200  A    between atoms: _478  and  _479
REMARK  201  A    between atoms: _481  and  _483
REMARK  202  A    between atoms: _483  and  _484
REMARK  203  A    between atoms: _486  and  _488
REMARK  204  A    between atoms: _488  and  _489
REMARK  205  A    between atoms: _488  and  _491
REMARK  206  A    between atoms: _491  and  _492
REMARK  207  A    between atoms: _498  and  _500
REMARK  208  A    between atoms: _500  and  _501
REMARK  209  A    between atoms: _500  and  _503
REMARK  210  A    between atoms: _503  and  _504
REMARK  211  A    between atoms: _507  and  _509
REMARK  212  A    between atoms: _509  and  _510
REMARK  213  A    between atoms: _509  and  _512
REMARK  214  A    between atoms: _515  and  _517
REMARK  215  A    between atoms: _517  and  _518
REMARK  216  A    between atoms: _517  and  _520
REMARK  217  A    between atoms: _520  and  _521
REMARK  218  A    between atoms: _525  and  _526
REMARK  219  A    between atoms: _531  and  _533
REMARK  220  A    between atoms: _533  and  _534
REMARK  221  A    between atoms: _533  and  _536
REMARK  222  A    between atoms: _536  and  _537
REMARK  223  A    between atoms: _541  and  _542
REMARK  224  A    between atoms: _547  and  _549
REMARK  225  A    between atoms: _549  and  _550
REMARK  226  A    between atoms: _549  and  _552
REMARK  227  A    between atoms: _555  and  _557
REMARK  228  A    between atoms: _557  and  _558
REMARK  229  A    between atoms: _557  and  _560
REMARK  230  A    between atoms: _560  and  _561
REMARK  231  A    between atoms: _566  and  _568
REMARK  232  A    between atoms: _568  and  _569
REMARK  233  A    between atoms: _568  and  _571
REMARK  234  A    between atoms: _571  and  _572
REMARK  235  A    between atoms: _575  and  _577
REMARK  236  A    between atoms: _577  and  _578
REMARK  237  A    between atoms: _577  and  _580
REMARK  238  A    between atoms: _580  and  _581
REMARK  239  A    between atoms: _584  and  _586
REMARK  240  A    between atoms: _586  and  _587
REMARK  241  A    between atoms: _589  and  _591
REMARK  242  A    between atoms: _591  and  _592
REMARK  243  A    between atoms: _591  and  _594
REMARK  244  A    between atoms: _594  and  _595
REMARK  245  A    between atoms: _595  and  _596
REMARK  246  A    between atoms: _596  and  _597
REMARK  247  A    between atoms: _606  and  _608
REMARK  248  A    between atoms: _608  and  _609
REMARK  249  A    between atoms: _608  and  _611
REMARK  250  A    between atoms: _611  and  _612
REMARK                            x       y       z     vdW  Elec       q    Type
REMARK                         _______ _______ _______ _____ _____    ______ ____
ROOT
ATOM      1  O   HOH     1      20.095  14.487   3.795  0.00  0.00    +0.000 OA
ENDROOT
TORSDOF 0
REMARK  Name = ../refined-set-2016/1w5x/1w5x_pocket.pdb
REMARK  250 active torsions:
REMARK  status: ('A' for Active; 'I' for Inactive)
REMARK    1  A    between atoms: _1  and  _3
REMARK    2  A    between atoms: _3  and  _4
REMARK    3  A    between atoms: _3  and  _6
REMARK    4  A    between atoms: _6  and  _7
REMARK    5  A    between atoms: _7  and  _8
REMARK    6  A    between atoms: _8  and  _9
REMARK    7  A    between atoms: _18  and  _20
REMARK    8  A    between atoms: _20  and  _21
REMARK    9  A    between atoms: _20  and  _23
REMARK   10  A    between atoms: _23  and  _24
REMARK   11  A    between atoms: _27  and  _29
REMARK   12  A    between atoms: _29  and  _30
REMARK   13  A    between atoms: _29  and  _32
REMARK   14  A    between atoms: _32  and  _33
REMARK   15  A    between atoms: _36  and  _38
REMARK   16  A    between atoms: _38  and  _39
REMARK   17  A    between atoms: _38  and  _41
REMARK   18  A    between atoms: _41  and  _42
REMARK   19  A    between atoms: _45  and  _47
REMARK   20  A    between atoms: _47  and  _48
REMARK   21  A    between atoms: _47  and  _50
REMARK   22  A    between atoms: _50  and  _51
REMARK   23  A    between atoms: _54  and  _56
REMARK   24  A    between atoms: _56  and  _57
REMARK   25  A    between atoms: _56  and  _59
REMARK   26  A    between atoms: _59  and  _60
REMARK   27  A    between atoms: _63  and  _65
REMARK   28  A    between atoms: _65  and  _66
REMARK   29  A    between atoms: _68  and  _70
REMARK   30  A    between atoms: _70  and  _71
REMARK   31  A    between atoms: _74  and  _76
REMARK   32  A    between atoms: _76  and  _77
REMARK   33  A    between atoms: _76  and  _79
REMARK   34  A    between atoms: _79  and  _80
REMARK   35  A    between atoms: _83  and  _85
REMARK   36  A    between atoms: _85  and  _86
REMARK   37  A    between atoms: _85  and  _88
REMARK   38  A    between atoms: _88  and  _89
REMARK   39  A    between atoms: _92  and  _94
REMARK   40  A    between atoms: _94  and  _95
REMARK   41  A    between atoms: _94  and  _97
REMARK   42  A    between atoms: _97  and  _98
REMARK   43  A    between atoms: _101  and  _103
REMARK   44  A    between atoms: _103  and  _104
REMARK   45  A    between atoms: _103  and  _106
REMARK   46  A    between atoms: _109  and  _111
REMARK   47  A    between atoms: _111  and  _112
REMARK   48  A    between atoms: _111  and  _114
REMARK   49  A    between atoms: _114  and  _115
REMARK   50  A    between atoms: _118  and  _120
REMARK   51  A    between atoms: _120  and  _121
REMARK   52  A    between atoms: _120  and  _123
REMARK   53  A    between atoms: _123  and  _124
REMARK   54  A    between atoms: _124  and  _125
REMARK   55  A    between atoms: _125  and  _126
REMARK   56  A    between atoms: _126  and  _127
REMARK   57  A    between atoms: _131  and  _133
REMARK   58  A    between atoms: _133  and  _134
REMARK   59  A    between atoms: _133  and  _136
REMARK   60  A    between atoms: _136  and  _137
REMARK   61  A    between atoms: _137  and  _138
REMARK   62  A    between atoms: _140  and  _142
REMARK   63  A    between atoms: _142  and  _143
REMARK   64  A    between atoms: _142  and  _145
REMARK   65  A    between atoms: _145  and  _146
REMARK   66  A    between atoms: _149  and  _151
REMARK   67  A    between atoms: _151  and  _152
REMARK   68  A    between atoms: _154  and  _156
REMARK   69  A    between atoms: _156  and  _157
REMARK   70  A    between atoms: _159  and  _161
REMARK   71  A    between atoms: _161  and  _162
REMARK   72  A    between atoms: _161  and  _164
REMARK   73  A    between atoms: _164  and  _165
REMARK   74  A    between atoms: _168  and  _170
REMARK   75  A    between atoms: _170  and  _171
REMARK   76  A    between atoms: _173  and  _175
REMARK   77  A    between atoms: _175  and  _176
REMARK   78  A    between atoms: _178  and  _180
REMARK   79  A    between atoms: _180  and  _181
REMARK   80  A    between atoms: _180  and  _183
REMARK   81  A    between atoms: _183  and  _184
REMARK   82  A    between atoms: _190  and  _192
REMARK   83  A    between atoms: _192  and  _193
REMARK   84  A    between atoms: _192  and  _195
REMARK   85  A    between atoms: _195  and  _196
REMARK   86  A    between atoms: _199  and  _201
REMARK   87  A    between atoms: _201  and  _202
REMARK   88  A    between atoms: _201  and  _204
REMARK   89  A    between atoms: _207  and  _209
REMARK   90  A    between atoms: _209  and  _210
REMARK   91  A    between atoms: _209  and  _212
REMARK   92  A    between atoms: _212  and  _213
REMARK   93  A    between atoms: _217  and  _218
REMARK   94  A    between atoms: _223  and  _225
REMARK   95  A    between atoms: _225  and  _226
REMARK   96  A    between atoms: _225  and  _228
REMARK   97  A    between atoms: _228  and  _229
REMARK   98  A    between atoms: _233  and  _234
REMARK   99  A    between atoms: _239  and  _241
REMARK  100  A    between atoms: _241  and  _242
REMARK  101  A    between atoms: _241  and  _244
REMARK  102  A    between atoms: _247  and  _249
REMARK  103  A    between atoms: _249  and  _250
REMARK  104  A    between atoms: _249  and  _252
REMARK  105  A    between atoms: _252  and  _253
REMARK  106  A    between atoms: _258  and  _260
REMARK  107  A    between atoms: _260  and  _261
REMARK  108  A    between atoms: _260  and  _263
REMARK  109  A    between atoms: _263  and  _264
REMARK  110  A    between atoms: _267  and  _269
REMARK  111  A    between atoms: _269  and  _270
REMARK  112  A    between atoms: _269  and  _272
REMARK  113  A    between atoms: _272  and  _273
REMARK  114  A    between atoms: _276  and  _278
REMARK  115  A    between atoms: _278  and  _279
REMARK  116  A    between atoms: _281  and  _283
REMARK  117  A    between atoms: _283  and  _284
REMARK  118  A    between atoms: _283  and  _286
REMARK  119  A    between atoms: _286  and  _287
REMARK  120  A    between atoms: _287  and  _288
REMARK  121  A    between atoms: _288  and  _289
REMARK  122  A    between atoms: _298  and  _300
REMARK  123  A    between atoms: _300  and  _301
REMARK  124  A    between atoms: _300  and  _303
REMARK  125  A    between atoms: _303  and  _304
REMARK  126  A    between atoms: _309  and  _311
REMARK  127  A    between atoms: _311  and  _312
REMARK  128  A    between atoms: _311  and  _314
REMARK  129  A    between atoms: _314  and  _315
REMARK  130  A    between atoms: _315  and  _316
REMARK  131  A    between atoms: _316  and  _317
REMARK  132  A    between atoms: _326  and  _328
REMARK  133  A    between atoms: _328  and  _329
REMARK  134  A    between atoms: _328  and  _331
REMARK  135  A    between atoms: _331  and  _332
REMARK  136  A    between atoms: _335  and  _337
REMARK  137  A    between atoms: _337  and  _338
REMARK  138  A    between atoms: _337  and  _340
REMARK  139  A    between atoms: _340  and  _341
REMARK  140  A    between atoms: _344  and  _346
REMARK  141  A    between atoms: _346  and  _347
REMARK  142  A    between atoms: _346  and  _349
REMARK  143  A    between atoms: _349  and  _350
REMARK  144  A    between atoms: _353  and  _355
REMARK  145  A    between atoms: _355  and  _356
REMARK  146  A    between atoms: _355  and  _358
REMARK  147  A    between atoms: _358  and  _359
REMARK  148  A    between atoms: _362  and  _364
REMARK  149  A    between atoms: _364  and  _365
REMARK  150  A    between atoms: _364  and  _367
REMARK  151  A    between atoms: _367  and  _368
REMARK  152  A    between atoms: _371  and  _373
REMARK  153  A    between atoms: _373  and  _374
REMARK  154  A    between atoms: _376  and  _378
REMARK  155  A    between atoms: _378  and  _379
REMARK  156  A    between atoms: _382  and  _384
REMARK  157  A    between atoms: _384  and  _385
REMARK  158  A    between atoms: _384  and  _387
REMARK  159  A    between atoms: _387  and  _388
REMARK  160  A    between atoms: _391  and  _393
REMARK  161  A    between atoms: _393  and  _394
REMARK  162  A    between atoms: _393  and  _396
REMARK  163  A    between atoms: _396  and  _397
REMARK  164  A    between atoms: _400  and  _402
REMARK  165  A    between atoms: _402  and  _403
REMARK  166  A    between atoms: _402  and  _405
REMARK  167  A    between atoms: _405  and  _406
REMARK  168  A    between atoms: _409  and  _411
REMARK  169  A    between atoms: _411  and  _412
REMARK  170  A    between atoms: _411  and  _414
REMARK  171  A    between atoms: _417  and  _419
REMARK  172  A    between atoms: _419  and  _420
REMARK  173  A    between atoms: _419  and  _422
REMARK  174  A    between atoms: _422  and  _423
REMARK  175  A    between atoms: _426  and  _428
REMARK  176  A    between atoms: _428  and  _429
REMARK  177  A    between atoms: _428  and  _431
REMARK  178  A    between atoms: _431  and  _432
REMARK  179  A    between atoms: _432  and  _433
REMARK  180  A    between atoms: _433  and  _434
REMARK  181  A    between atoms: _434  and  _435
REMARK  182  A    between atoms: _439  and  _441
REMARK  183  A    between atoms: _441  and  _442
REMARK  184  A    between atoms: _441  and  _444
REMARK  185  A    between atoms: _444  and  _445
REMARK  186  A    between atoms: _445  and  _446
REMARK  187  A    between atoms: _448  and  _450
REMARK  188  A    between atoms: _450  and  _451
REMARK  189  A    between atoms: _450  and  _453
REMARK  190  A    between atoms: _453  and  _454
REMARK  191  A    between atoms: _457  and  _459
REMARK  192  A    between atoms: _459  and  _460
REMARK  193  A    between atoms: _462  and  _464
REMARK  194  A    between atoms: _464  and  _465
REMARK  195  A    between atoms: _467  and  _469
REMARK  196  A    between atoms: _469  and  _470
REMARK  197  A    between atoms: _469  and  _472
REMARK  198  A    between atoms: _472  and  _473
REMARK  199  A    between atoms: _476  and  _478
REMARK  200  A    between atoms: _478  and  _479
REMARK  201  A    between atoms: _481  and  _483
REMARK  202  A    between atoms: _483  and  _484
REMARK  203  A    between atoms: _486  and  _488
REMARK  204  A    between atoms: _488  and  _489
REMARK  205  A    between atoms: _488  and  _491
REMARK  206  A    between atoms: _491  and  _492
REMARK  207  A    between atoms: _498  and  _500
REMARK  208  A    between atoms: _500  and  _501
REMARK  209  A    between atoms: _500  and  _503
REMARK  210  A    between atoms: _503  and  _504
REMARK  211  A    between atoms: _507  and  _509
REMARK  212  A    between atoms: _509  and  _510
REMARK  213  A    between atoms: _509  and  _512
REMARK  214  A    between atoms: _515  and  _517
REMARK  215  A    between atoms: _517  and  _518
REMARK  216  A    between atoms: _517  and  _520
REMARK  217  A    between atoms: _520  and  _521
REMARK  218  A    between atoms: _525  and  _526
REMARK  219  A    between atoms: _531  and  _533
REMARK  220  A    between atoms: _533  and  _534
REMARK  221  A    between atoms: _533  and  _536
REMARK  222  A    between atoms: _536  and  _537
REMARK  223  A    between atoms: _541  and  _542
REMARK  224  A    between atoms: _547  and  _549
REMARK  225  A    between atoms: _549  and  _550
REMARK  226  A    between atoms: _549  and  _552
REMARK  227  A    between atoms: _555  and  _557
REMARK  228  A    between atoms: _557  and  _558
REMARK  229  A    between atoms: _557  and  _560
REMARK  230  A    between atoms: _560  and  _561
REMARK  231  A    between atoms: _566  and  _568
REMARK  232  A    between atoms: _568  and  _569
REMARK  233  A    between atoms: _568  and  _571
REMARK  234  A    between atoms: _571  and  _572
REMARK  235  A    between atoms: _575  and  _577
REMARK  236  A    between atoms: _577  and  _578
REMARK  237  A    between atoms: _577  and  _580
REMARK  238  A    between atoms: _580  and  _581
REMARK  239  A    between atoms: _584  and  _586
REMARK  240  A    between atoms: _586  and  _587
REMARK  241  A    between atoms: _589  and  _591
REMARK  242  A    between atoms: _591  and  _592
REMARK  243  A    between atoms: _591  and  _594
REMARK  244  A    between atoms: _594  and  _595
REMARK  245  A    between atoms: _595  and  _596
REMARK  246  A    between atoms: _596  and  _597
REMARK  247  A    between atoms: _606  and  _608
REMARK  248  A    between atoms: _608  and  _609
REMARK  249  A    between atoms: _608  and  _611
REMARK  250  A    between atoms: _611  and  _612
REMARK                            x       y       z     vdW  Elec       q    Type
REMARK                         _______ _______ _______ _____ _____    ______ ____
ROOT
ATOM      1  O   HOH     1      22.157  12.760  -1.594  0.00  0.00    +0.000 OA
ENDROOT
TORSDOF 0
REMARK  Name = ../refined-set-2016/1w5x/1w5x_pocket.pdb
REMARK  250 active torsions:
REMARK  status: ('A' for Active; 'I' for Inactive)
REMARK    1  A    between atoms: _1  and  _3
REMARK    2  A    between atoms: _3  and  _4
REMARK    3  A    between atoms: _3  and  _6
REMARK    4  A    between atoms: _6  and  _7
REMARK    5  A    between atoms: _7  and  _8
REMARK    6  A    between atoms: _8  and  _9
REMARK    7  A    between atoms: _18  and  _20
REMARK    8  A    between atoms: _20  and  _21
REMARK    9  A    between atoms: _20  and  _23
REMARK   10  A    between atoms: _23  and  _24
REMARK   11  A    between atoms: _27  and  _29
REMARK   12  A    between atoms: _29  and  _30
REMARK   13  A    between atoms: _29  and  _32
REMARK   14  A    between atoms: _32  and  _33
REMARK   15  A    between atoms: _36  and  _38
REMARK   16  A    between atoms: _38  and  _39
REMARK   17  A    between atoms: _38  and  _41
REMARK   18  A    between atoms: _41  and  _42
REMARK   19  A    between atoms: _45  and  _47
REMARK   20  A    between atoms: _47  and  _48
REMARK   21  A    between atoms: _47  and  _50
REMARK   22  A    between atoms: _50  and  _51
REMARK   23  A    between atoms: _54  and  _56
REMARK   24  A    between atoms: _56  and  _57
REMARK   25  A    between atoms: _56  and  _59
REMARK   26  A    between atoms: _59  and  _60
REMARK   27  A    between atoms: _63  and  _65
REMARK   28  A    between atoms: _65  and  _66
REMARK   29  A    between atoms: _68  and  _70
REMARK   30  A    between atoms: _70  and  _71
REMARK   31  A    between atoms: _74  and  _76
REMARK   32  A    between atoms: _76  and  _77
REMARK   33  A    between atoms: _76  and  _79
REMARK   34  A    between atoms: _79  and  _80
REMARK   35  A    between atoms: _83  and  _85
REMARK   36  A    between atoms: _85  and  _86
REMARK   37  A    between atoms: _85  and  _88
REMARK   38  A    between atoms: _88  and  _89
REMARK   39  A    between atoms: _92  and  _94
REMARK   40  A    between atoms: _94  and  _95
REMARK   41  A    between atoms: _94  and  _97
REMARK   42  A    between atoms: _97  and  _98
REMARK   43  A    between atoms: _101  and  _103
REMARK   44  A    between atoms: _103  and  _104
REMARK   45  A    between atoms: _103  and  _106
REMARK   46  A    between atoms: _109  and  _111
REMARK   47  A    between atoms: _111  and  _112
REMARK   48  A    between atoms: _111  and  _114
REMARK   49  A    between atoms: _114  and  _115
REMARK   50  A    between atoms: _118  and  _120
REMARK   51  A    between atoms: _120  and  _121
REMARK   52  A    between atoms: _120  and  _123
REMARK   53  A    between atoms: _123  and  _124
REMARK   54  A    between atoms: _124  and  _125
REMARK   55  A    between atoms: _125  and  _126
REMARK   56  A    between atoms: _126  and  _127
REMARK   57  A    between atoms: _131  and  _133
REMARK   58  A    between atoms: _133  and  _134
REMARK   59  A    between atoms: _133  and  _136
REMARK   60  A    between atoms: _136  and  _137
REMARK   61  A    between atoms: _137  and  _138
REMARK   62  A    between atoms: _140  and  _142
REMARK   63  A    between atoms: _142  and  _143
REMARK   64  A    between atoms: _142  and  _145
REMARK   65  A    between atoms: _145  and  _146
REMARK   66  A    between atoms: _149  and  _151
REMARK   67  A    between atoms: _151  and  _152
REMARK   68  A    between atoms: _154  and  _156
REMARK   69  A    between atoms: _156  and  _157
REMARK   70  A    between atoms: _159  and  _161
REMARK   71  A    between atoms: _161  and  _162
REMARK   72  A    between atoms: _161  and  _164
REMARK   73  A    between atoms: _164  and  _165
REMARK   74  A    between atoms: _168  and  _170
REMARK   75  A    between atoms: _170  and  _171
REMARK   76  A    between atoms: _173  and  _175
REMARK   77  A    between atoms: _175  and  _176
REMARK   78  A    between atoms: _178  and  _180
REMARK   79  A    between atoms: _180  and  _181
REMARK   80  A    between atoms: _180  and  _183
REMARK   81  A    between atoms: _183  and  _184
REMARK   82  A    between atoms: _190  and  _192
REMARK   83  A    between atoms: _192  and  _193
REMARK   84  A    between atoms: _192  and  _195
REMARK   85  A    between atoms: _195  and  _196
REMARK   86  A    between atoms: _199  and  _201
REMARK   87  A    between atoms: _201  and  _202
REMARK   88  A    between atoms: _201  and  _204
REMARK   89  A    between atoms: _207  and  _209
REMARK   90  A    between atoms: _209  and  _210
REMARK   91  A    between atoms: _209  and  _212
REMARK   92  A    between atoms: _212  and  _213
REMARK   93  A    between atoms: _217  and  _218
REMARK   94  A    between atoms: _223  and  _225
REMARK   95  A    between atoms: _225  and  _226
REMARK   96  A    between atoms: _225  and  _228
REMARK   97  A    between atoms: _228  and  _229
REMARK   98  A    between atoms: _233  and  _234
REMARK   99  A    between atoms: _239  and  _241
REMARK  100  A    between atoms: _241  and  _242
REMARK  101  A    between atoms: _241  and  _244
REMARK  102  A    between atoms: _247  and  _249
REMARK  103  A    between atoms: _249  and  _250
REMARK  104  A    between atoms: _249  and  _252
REMARK  105  A    between atoms: _252  and  _253
REMARK  106  A    between atoms: _258  and  _260
REMARK  107  A    between atoms: _260  and  _261
REMARK  108  A    between atoms: _260  and  _263
REMARK  109  A    between atoms: _263  and  _264
REMARK  110  A    between atoms: _267  and  _269
REMARK  111  A    between atoms: _269  and  _270
REMARK  112  A    between atoms: _269  and  _272
REMARK  113  A    between atoms: _272  and  _273
REMARK  114  A    between atoms: _276  and  _278
REMARK  115  A    between atoms: _278  and  _279
REMARK  116  A    between atoms: _281  and  _283
REMARK  117  A    between atoms: _283  and  _284
REMARK  118  A    between atoms: _283  and  _286
REMARK  119  A    between atoms: _286  and  _287
REMARK  120  A    between atoms: _287  and  _288
REMARK  121  A    between atoms: _288  and  _289
REMARK  122  A    between atoms: _298  and  _300
REMARK  123  A    between atoms: _300  and  _301
REMARK  124  A    between atoms: _300  and  _303
REMARK  125  A    between atoms: _303  and  _304
REMARK  126  A    between atoms: _309  and  _311
REMARK  127  A    between atoms: _311  and  _312
REMARK  128  A    between atoms: _311  and  _314
REMARK  129  A    between atoms: _314  and  _315
REMARK  130  A    between atoms: _315  and  _316
REMARK  131  A    between atoms: _316  and  _317
REMARK  132  A    between atoms: _326  and  _328
REMARK  133  A    between atoms: _328  and  _329
REMARK  134  A    between atoms: _328  and  _331
REMARK  135  A    between atoms: _331  and  _332
REMARK  136  A    between atoms: _335  and  _337
REMARK  137  A    between atoms: _337  and  _338
REMARK  138  A    between atoms: _337  and  _340
REMARK  139  A    between atoms: _340  and  _341
REMARK  140  A    between atoms: _344  and  _346
REMARK  141  A    between atoms: _346  and  _347
REMARK  142  A    between atoms: _346  and  _349
REMARK  143  A    between atoms: _349  and  _350
REMARK  144  A    between atoms: _353  and  _355
REMARK  145  A    between atoms: _355  and  _356
REMARK  146  A    between atoms: _355  and  _358
REMARK  147  A    between atoms: _358  and  _359
REMARK  148  A    between atoms: _362  and  _364
REMARK  149  A    between atoms: _364  and  _365
REMARK  150  A    between atoms: _364  and  _367
REMARK  151  A    between atoms: _367  and  _368
REMARK  152  A    between atoms: _371  and  _373
REMARK  153  A    between atoms: _373  and  _374
REMARK  154  A    between atoms: _376  and  _378
REMARK  155  A    between atoms: _378  and  _379
REMARK  156  A    between atoms: _382  and  _384
REMARK  157  A    between atoms: _384  and  _385
REMARK  158  A    between atoms: _384  and  _387
REMARK  159  A    between atoms: _387  and  _388
REMARK  160  A    between atoms: _391  and  _393
REMARK  161  A    between atoms: _393  and  _394
REMARK  162  A    between atoms: _393  and  _396
REMARK  163  A    between atoms: _396  and  _397
REMARK  164  A    between atoms: _400  and  _402
REMARK  165  A    between atoms: _402  and  _403
REMARK  166  A    between atoms: _402  and  _405
REMARK  167  A    between atoms: _405  and  _406
REMARK  168  A    between atoms: _409  and  _411
REMARK  169  A    between atoms: _411  and  _412
REMARK  170  A    between atoms: _411  and  _414
REMARK  171  A    between atoms: _417  and  _419
REMARK  172  A    between atoms: _419  and  _420
REMARK  173  A    between atoms: _419  and  _422
REMARK  174  A    between atoms: _422  and  _423
REMARK  175  A    between atoms: _426  and  _428
REMARK  176  A    between atoms: _428  and  _429
REMARK  177  A    between atoms: _428  and  _431
REMARK  178  A    between atoms: _431  and  _432
REMARK  179  A    between atoms: _432  and  _433
REMARK  180  A    between atoms: _433  and  _434
REMARK  181  A    between atoms: _434  and  _435
REMARK  182  A    between atoms: _439  and  _441
REMARK  183  A    between atoms: _441  and  _442
REMARK  184  A    between atoms: _441  and  _444
REMARK  185  A    between atoms: _444  and  _445
REMARK  186  A    between atoms: _445  and  _446
REMARK  187  A    between atoms: _448  and  _450
REMARK  188  A    between atoms: _450  and  _451
REMARK  189  A    between atoms: _450  and  _453
REMARK  190  A    between atoms: _453  and  _454
REMARK  191  A    between atoms: _457  and  _459
REMARK  192  A    between atoms: _459  and  _460
REMARK  193  A    between atoms: _462  and  _464
REMARK  194  A    between atoms: _464  and  _465
REMARK  195  A    between atoms: _467  and  _469
REMARK  196  A    between atoms: _469  and  _470
REMARK  197  A    between atoms: _469  and  _472
REMARK  198  A    between atoms: _472  and  _473
REMARK  199  A    between atoms: _476  and  _478
REMARK  200  A    between atoms: _478  and  _479
REMARK  201  A    between atoms: _481  and  _483
REMARK  202  A    between atoms: _483  and  _484
REMARK  203  A    between atoms: _486  and  _488
REMARK  204  A    between atoms: _488  and  _489
REMARK  205  A    between atoms: _488  and  _491
REMARK  206  A    between atoms: _491  and  _492
REMARK  207  A    between atoms: _498  and  _500
REMARK  208  A    between atoms: _500  and  _501
REMARK  209  A    between atoms: _500  and  _503
REMARK  210  A    between atoms: _503  and  _504
REMARK  211  A    between atoms: _507  and  _509
REMARK  212  A    between atoms: _509  and  _510
REMARK  213  A    between atoms: _509  and  _512
REMARK  214  A    between atoms: _515  and  _517
REMARK  215  A    between atoms: _517  and  _518
REMARK  216  A    between atoms: _517  and  _520
REMARK  217  A    between atoms: _520  and  _521
REMARK  218  A    between atoms: _525  and  _526
REMARK  219  A    between atoms: _531  and  _533
REMARK  220  A    between atoms: _533  and  _534
REMARK  221  A    between atoms: _533  and  _536
REMARK  222  A    between atoms: _536  and  _537
REMARK  223  A    between atoms: _541  and  _542
REMARK  224  A    between atoms: _547  and  _549
REMARK  225  A    between atoms: _549  and  _550
REMARK  226  A    between atoms: _549  and  _552
REMARK  227  A    between atoms: _555  and  _557
REMARK  228  A    between atoms: _557  and  _558
REMARK  229  A    between atoms: _557  and  _560
REMARK  230  A    between atoms: _560  and  _561
REMARK  231  A    between atoms: _566  and  _568
REMARK  232  A    between atoms: _568  and  _569
REMARK  233  A    between atoms: _568  and  _571
REMARK  234  A    between atoms: _571  and  _572
REMARK  235  A    between atoms: _575  and  _577
REMARK  236  A    between atoms: _577  and  _578
REMARK  237  A    between atoms: _577  and  _580
REMARK  238  A    between atoms: _580  and  _581
REMARK  239  A    between atoms: _584  and  _586
REMARK  240  A    between atoms: _586  and  _587
REMARK  241  A    between atoms: _589  and  _591
REMARK  242  A    between atoms: _591  and  _592
REMARK  243  A    between atoms: _591  and  _594
REMARK  244  A    between atoms: _594  and  _595
REMARK  245  A    between atoms: _595  and  _596
REMARK  246  A    between atoms: _596  and  _597
REMARK  247  A    between atoms: _606  and  _608
REMARK  248  A    between atoms: _608  and  _609
REMARK  249  A    between atoms: _608  and  _611
REMARK  250  A    between atoms: _611  and  _612
REMARK                            x       y       z     vdW  Elec       q    Type
REMARK                         _______ _______ _______ _____ _____    ______ ____
ROOT
ATOM      1  O   HOH     1      18.288  14.225   6.527  0.00  0.00    +0.000 OA
ENDROOT
TORSDOF 0
REMARK  Name = ../refined-set-2016/1w5x/1w5x_pocket.pdb
REMARK  250 active torsions:
REMARK  status: ('A' for Active; 'I' for Inactive)
REMARK    1  A    between atoms: _1  and  _3
REMARK    2  A    between atoms: _3  and  _4
REMARK    3  A    between atoms: _3  and  _6
REMARK    4  A    between atoms: _6  and  _7
REMARK    5  A    between atoms: _7  and  _8
REMARK    6  A    between atoms: _8  and  _9
REMARK    7  A    between atoms: _18  and  _20
REMARK    8  A    between atoms: _20  and  _21
REMARK    9  A    between atoms: _20  and  _23
REMARK   10  A    between atoms: _23  and  _24
REMARK   11  A    between atoms: _27  and  _29
REMARK   12  A    between atoms: _29  and  _30
REMARK   13  A    between atoms: _29  and  _32
REMARK   14  A    between atoms: _32  and  _33
REMARK   15  A    between atoms: _36  and  _38
REMARK   16  A    between atoms: _38  and  _39
REMARK   17  A    between atoms: _38  and  _41
REMARK   18  A    between atoms: _41  and  _42
REMARK   19  A    between atoms: _45  and  _47
REMARK   20  A    between atoms: _47  and  _48
REMARK   21  A    between atoms: _47  and  _50
REMARK   22  A    between atoms: _50  and  _51
REMARK   23  A    between atoms: _54  and  _56
REMARK   24  A    between atoms: _56  and  _57
REMARK   25  A    between atoms: _56  and  _59
REMARK   26  A    between atoms: _59  and  _60
REMARK   27  A    between atoms: _63  and  _65
REMARK   28  A    between atoms: _65  and  _66
REMARK   29  A    between atoms: _68  and  _70
REMARK   30  A    between atoms: _70  and  _71
REMARK   31  A    between atoms: _74  and  _76
REMARK   32  A    between atoms: _76  and  _77
REMARK   33  A    between atoms: _76  and  _79
REMARK   34  A    between atoms: _79  and  _80
REMARK   35  A    between atoms: _83  and  _85
REMARK   36  A    between atoms: _85  and  _86
REMARK   37  A    between atoms: _85  and  _88
REMARK   38  A    between atoms: _88  and  _89
REMARK   39  A    between atoms: _92  and  _94
REMARK   40  A    between atoms: _94  and  _95
REMARK   41  A    between atoms: _94  and  _97
REMARK   42  A    between atoms: _97  and  _98
REMARK   43  A    between atoms: _101  and  _103
REMARK   44  A    between atoms: _103  and  _104
REMARK   45  A    between atoms: _103  and  _106
REMARK   46  A    between atoms: _109  and  _111
REMARK   47  A    between atoms: _111  and  _112
REMARK   48  A    between atoms: _111  and  _114
REMARK   49  A    between atoms: _114  and  _115
REMARK   50  A    between atoms: _118  and  _120
REMARK   51  A    between atoms: _120  and  _121
REMARK   52  A    between atoms: _120  and  _123
REMARK   53  A    between atoms: _123  and  _124
REMARK   54  A    between atoms: _124  and  _125
REMARK   55  A    between atoms: _125  and  _126
REMARK   56  A    between atoms: _126  and  _127
REMARK   57  A    between atoms: _131  and  _133
REMARK   58  A    between atoms: _133  and  _134
REMARK   59  A    between atoms: _133  and  _136
REMARK   60  A    between atoms: _136  and  _137
REMARK   61  A    between atoms: _137  and  _138
REMARK   62  A    between atoms: _140  and  _142
REMARK   63  A    between atoms: _142  and  _143
REMARK   64  A    between atoms: _142  and  _145
REMARK   65  A    between atoms: _145  and  _146
REMARK   66  A    between atoms: _149  and  _151
REMARK   67  A    between atoms: _151  and  _152
REMARK   68  A    between atoms: _154  and  _156
REMARK   69  A    between atoms: _156  and  _157
REMARK   70  A    between atoms: _159  and  _161
REMARK   71  A    between atoms: _161  and  _162
REMARK   72  A    between atoms: _161  and  _164
REMARK   73  A    between atoms: _164  and  _165
REMARK   74  A    between atoms: _168  and  _170
REMARK   75  A    between atoms: _170  and  _171
REMARK   76  A    between atoms: _173  and  _175
REMARK   77  A    between atoms: _175  and  _176
REMARK   78  A    between atoms: _178  and  _180
REMARK   79  A    between atoms: _180  and  _181
REMARK   80  A    between atoms: _180  and  _183
REMARK   81  A    between atoms: _183  and  _184
REMARK   82  A    between atoms: _190  and  _192
REMARK   83  A    between atoms: _192  and  _193
REMARK   84  A    between atoms: _192  and  _195
REMARK   85  A    between atoms: _195  and  _196
REMARK   86  A    between atoms: _199  and  _201
REMARK   87  A    between atoms: _201  and  _202
REMARK   88  A    between atoms: _201  and  _204
REMARK   89  A    between atoms: _207  and  _209
REMARK   90  A    between atoms: _209  and  _210
REMARK   91  A    between atoms: _209  and  _212
REMARK   92  A    between atoms: _212  and  _213
REMARK   93  A    between atoms: _217  and  _218
REMARK   94  A    between atoms: _223  and  _225
REMARK   95  A    between atoms: _225  and  _226
REMARK   96  A    between atoms: _225  and  _228
REMARK   97  A    between atoms: _228  and  _229
REMARK   98  A    between atoms: _233  and  _234
REMARK   99  A    between atoms: _239  and  _241
REMARK  100  A    between atoms: _241  and  _242
REMARK  101  A    between atoms: _241  and  _244
REMARK  102  A    between atoms: _247  and  _249
REMARK  103  A    between atoms: _249  and  _250
REMARK  104  A    between atoms: _249  and  _252
REMARK  105  A    between atoms: _252  and  _253
REMARK  106  A    between atoms: _258  and  _260
REMARK  107  A    between atoms: _260  and  _261
REMARK  108  A    between atoms: _260  and  _263
REMARK  109  A    between atoms: _263  and  _264
REMARK  110  A    between atoms: _267  and  _269
REMARK  111  A    between atoms: _269  and  _270
REMARK  112  A    between atoms: _269  and  _272
REMARK  113  A    between atoms: _272  and  _273
REMARK  114  A    between atoms: _276  and  _278
REMARK  115  A    between atoms: _278  and  _279
REMARK  116  A    between atoms: _281  and  _283
REMARK  117  A    between atoms: _283  and  _284
REMARK  118  A    between atoms: _283  and  _286
REMARK  119  A    between atoms: _286  and  _287
REMARK  120  A    between atoms: _287  and  _288
REMARK  121  A    between atoms: _288  and  _289
REMARK  122  A    between atoms: _298  and  _300
REMARK  123  A    between atoms: _300  and  _301
REMARK  124  A    between atoms: _300  and  _303
REMARK  125  A    between atoms: _303  and  _304
REMARK  126  A    between atoms: _309  and  _311
REMARK  127  A    between atoms: _311  and  _312
REMARK  128  A    between atoms: _311  and  _314
REMARK  129  A    between atoms: _314  and  _315
REMARK  130  A    between atoms: _315  and  _316
REMARK  131  A    between atoms: _316  and  _317
REMARK  132  A    between atoms: _326  and  _328
REMARK  133  A    between atoms: _328  and  _329
REMARK  134  A    between atoms: _328  and  _331
REMARK  135  A    between atoms: _331  and  _332
REMARK  136  A    between atoms: _335  and  _337
REMARK  137  A    between atoms: _337  and  _338
REMARK  138  A    between atoms: _337  and  _340
REMARK  139  A    between atoms: _340  and  _341
REMARK  140  A    between atoms: _344  and  _346
REMARK  141  A    between atoms: _346  and  _347
REMARK  142  A    between atoms: _346  and  _349
REMARK  143  A    between atoms: _349  and  _350
REMARK  144  A    between atoms: _353  and  _355
REMARK  145  A    between atoms: _355  and  _356
REMARK  146  A    between atoms: _355  and  _358
REMARK  147  A    between atoms: _358  and  _359
REMARK  148  A    between atoms: _362  and  _364
REMARK  149  A    between atoms: _364  and  _365
REMARK  150  A    between atoms: _364  and  _367
REMARK  151  A    between atoms: _367  and  _368
REMARK  152  A    between atoms: _371  and  _373
REMARK  153  A    between atoms: _373  and  _374
REMARK  154  A    between atoms: _376  and  _378
REMARK  155  A    between atoms: _378  and  _379
REMARK  156  A    between atoms: _382  and  _384
REMARK  157  A    between atoms: _384  and  _385
REMARK  158  A    between atoms: _384  and  _387
REMARK  159  A    between atoms: _387  and  _388
REMARK  160  A    between atoms: _391  and  _393
REMARK  161  A    between atoms: _393  and  _394
REMARK  162  A    between atoms: _393  and  _396
REMARK  163  A    between atoms: _396  and  _397
REMARK  164  A    between atoms: _400  and  _402
REMARK  165  A    between atoms: _402  and  _403
REMARK  166  A    between atoms: _402  and  _405
REMARK  167  A    between atoms: _405  and  _406
REMARK  168  A    between atoms: _409  and  _411
REMARK  169  A    between atoms: _411  and  _412
REMARK  170  A    between atoms: _411  and  _414
REMARK  171  A    between atoms: _417  and  _419
REMARK  172  A    between atoms: _419  and  _420
REMARK  173  A    between atoms: _419  and  _422
REMARK  174  A    between atoms: _422  and  _423
REMARK  175  A    between atoms: _426  and  _428
REMARK  176  A    between atoms: _428  and  _429
REMARK  177  A    between atoms: _428  and  _431
REMARK  178  A    between atoms: _431  and  _432
REMARK  179  A    between atoms: _432  and  _433
REMARK  180  A    between atoms: _433  and  _434
REMARK  181  A    between atoms: _434  and  _435
REMARK  182  A    between atoms: _439  and  _441
REMARK  183  A    between atoms: _441  and  _442
REMARK  184  A    between atoms: _441  and  _444
REMARK  185  A    between atoms: _444  and  _445
REMARK  186  A    between atoms: _445  and  _446
REMARK  187  A    between atoms: _448  and  _450
REMARK  188  A    between atoms: _450  and  _451
REMARK  189  A    between atoms: _450  and  _453
REMARK  190  A    between atoms: _453  and  _454
REMARK  191  A    between atoms: _457  and  _459
REMARK  192  A    between atoms: _459  and  _460
REMARK  193  A    between atoms: _462  and  _464
REMARK  194  A    between atoms: _464  and  _465
REMARK  195  A    between atoms: _467  and  _469
REMARK  196  A    between atoms: _469  and  _470
REMARK  197  A    between atoms: _469  and  _472
REMARK  198  A    between atoms: _472  and  _473
REMARK  199  A    between atoms: _476  and  _478
REMARK  200  A    between atoms: _478  and  _479
REMARK  201  A    between atoms: _481  and  _483
REMARK  202  A    between atoms: _483  and  _484
REMARK  203  A    between atoms: _486  and  _488
REMARK  204  A    between atoms: _488  and  _489
REMARK  205  A    between atoms: _488  and  _491
REMARK  206  A    between atoms: _491  and  _492
REMARK  207  A    between atoms: _498  and  _500
REMARK  208  A    between atoms: _500  and  _501
REMARK  209  A    between atoms: _500  and  _503
REMARK  210  A    between atoms: _503  and  _504
REMARK  211  A    between atoms: _507  and  _509
REMARK  212  A    between atoms: _509  and  _510
REMARK  213  A    between atoms: _509  and  _512
REMARK  214  A    between atoms: _515  and  _517
REMARK  215  A    between atoms: _517  and  _518
REMARK  216  A    between atoms: _517  and  _520
REMARK  217  A    between atoms: _520  and  _521
REMARK  218  A    between atoms: _525  and  _526
REMARK  219  A    between atoms: _531  and  _533
REMARK  220  A    between atoms: _533  and  _534
REMARK  221  A    between atoms: _533  and  _536
REMARK  222  A    between atoms: _536  and  _537
REMARK  223  A    between atoms: _541  and  _542
REMARK  224  A    between atoms: _547  and  _549
REMARK  225  A    between atoms: _549  and  _550
REMARK  226  A    between atoms: _549  and  _552
REMARK  227  A    between atoms: _555  and  _557
REMARK  228  A    between atoms: _557  and  _558
REMARK  229  A    between atoms: _557  and  _560
REMARK  230  A    between atoms: _560  and  _561
REMARK  231  A    between atoms: _566  and  _568
REMARK  232  A    between atoms: _568  and  _569
REMARK  233  A    between atoms: _568  and  _571
REMARK  234  A    between atoms: _571  and  _572
REMARK  235  A    between atoms: _575  and  _577
REMARK  236  A    between atoms: _577  and  _578
REMARK  237  A    between atoms: _577  and  _580
REMARK  238  A    between atoms: _580  and  _581
REMARK  239  A    between atoms: _584  and  _586
REMARK  240  A    between atoms: _586  and  _587
REMARK  241  A    between atoms: _589  and  _591
REMARK  242  A    between atoms: _591  and  _592
REMARK  243  A    between atoms: _591  and  _594
REMARK  244  A    between atoms: _594  and  _595
REMARK  245  A    between atoms: _595  and  _596
REMARK  246  A    between atoms: _596  and  _597
REMARK  247  A    between atoms: _606  and  _608
REMARK  248  A    between atoms: _608  and  _609
REMARK  249  A    between atoms: _608  and  _611
REMARK  250  A    between atoms: _611  and  _612
REMARK                            x       y       z     vdW  Elec       q    Type
REMARK                         _______ _______ _______ _____ _____    ______ ____
ROOT
ATOM      1  O   HOH     1      17.974  16.185   8.483  0.00  0.00    +0.000 OA
ENDROOT
TORSDOF 0
REMARK  Name = ../refined-set-2016/1w5x/1w5x_pocket.pdb
REMARK  250 active torsions:
REMARK  status: ('A' for Active; 'I' for Inactive)
REMARK    1  A    between atoms: _1  and  _3
REMARK    2  A    between atoms: _3  and  _4
REMARK    3  A    between atoms: _3  and  _6
REMARK    4  A    between atoms: _6  and  _7
REMARK    5  A    between atoms: _7  and  _8
REMARK    6  A    between atoms: _8  and  _9
REMARK    7  A    between atoms: _18  and  _20
REMARK    8  A    between atoms: _20  and  _21
REMARK    9  A    between atoms: _20  and  _23
REMARK   10  A    between atoms: _23  and  _24
REMARK   11  A    between atoms: _27  and  _29
REMARK   12  A    between atoms: _29  and  _30
REMARK   13  A    between atoms: _29  and  _32
REMARK   14  A    between atoms: _32  and  _33
REMARK   15  A    between atoms: _36  and  _38
REMARK   16  A    between atoms: _38  and  _39
REMARK   17  A    between atoms: _38  and  _41
REMARK   18  A    between atoms: _41  and  _42
REMARK   19  A    between atoms: _45  and  _47
REMARK   20  A    between atoms: _47  and  _48
REMARK   21  A    between atoms: _47  and  _50
REMARK   22  A    between atoms: _50  and  _51
REMARK   23  A    between atoms: _54  and  _56
REMARK   24  A    between atoms: _56  and  _57
REMARK   25  A    between atoms: _56  and  _59
REMARK   26  A    between atoms: _59  and  _60
REMARK   27  A    between atoms: _63  and  _65
REMARK   28  A    between atoms: _65  and  _66
REMARK   29  A    between atoms: _68  and  _70
REMARK   30  A    between atoms: _70  and  _71
REMARK   31  A    between atoms: _74  and  _76
REMARK   32  A    between atoms: _76  and  _77
REMARK   33  A    between atoms: _76  and  _79
REMARK   34  A    between atoms: _79  and  _80
REMARK   35  A    between atoms: _83  and  _85
REMARK   36  A    between atoms: _85  and  _86
REMARK   37  A    between atoms: _85  and  _88
REMARK   38  A    between atoms: _88  and  _89
REMARK   39  A    between atoms: _92  and  _94
REMARK   40  A    between atoms: _94  and  _95
REMARK   41  A    between atoms: _94  and  _97
REMARK   42  A    between atoms: _97  and  _98
REMARK   43  A    between atoms: _101  and  _103
REMARK   44  A    between atoms: _103  and  _104
REMARK   45  A    between atoms: _103  and  _106
REMARK   46  A    between atoms: _109  and  _111
REMARK   47  A    between atoms: _111  and  _112
REMARK   48  A    between atoms: _111  and  _114
REMARK   49  A    between atoms: _114  and  _115
REMARK   50  A    between atoms: _118  and  _120
REMARK   51  A    between atoms: _120  and  _121
REMARK   52  A    between atoms: _120  and  _123
REMARK   53  A    between atoms: _123  and  _124
REMARK   54  A    between atoms: _124  and  _125
REMARK   55  A    between atoms: _125  and  _126
REMARK   56  A    between atoms: _126  and  _127
REMARK   57  A    between atoms: _131  and  _133
REMARK   58  A    between atoms: _133  and  _134
REMARK   59  A    between atoms: _133  and  _136
REMARK   60  A    between atoms: _136  and  _137
REMARK   61  A    between atoms: _137  and  _138
REMARK   62  A    between atoms: _140  and  _142
REMARK   63  A    between atoms: _142  and  _143
REMARK   64  A    between atoms: _142  and  _145
REMARK   65  A    between atoms: _145  and  _146
REMARK   66  A    between atoms: _149  and  _151
REMARK   67  A    between atoms: _151  and  _152
REMARK   68  A    between atoms: _154  and  _156
REMARK   69  A    between atoms: _156  and  _157
REMARK   70  A    between atoms: _159  and  _161
REMARK   71  A    between atoms: _161  and  _162
REMARK   72  A    between atoms: _161  and  _164
REMARK   73  A    between atoms: _164  and  _165
REMARK   74  A    between atoms: _168  and  _170
REMARK   75  A    between atoms: _170  and  _171
REMARK   76  A    between atoms: _173  and  _175
REMARK   77  A    between atoms: _175  and  _176
REMARK   78  A    between atoms: _178  and  _180
REMARK   79  A    between atoms: _180  and  _181
REMARK   80  A    between atoms: _180  and  _183
REMARK   81  A    between atoms: _183  and  _184
REMARK   82  A    between atoms: _190  and  _192
REMARK   83  A    between atoms: _192  and  _193
REMARK   84  A    between atoms: _192  and  _195
REMARK   85  A    between atoms: _195  and  _196
REMARK   86  A    between atoms: _199  and  _201
REMARK   87  A    between atoms: _201  and  _202
REMARK   88  A    between atoms: _201  and  _204
REMARK   89  A    between atoms: _207  and  _209
REMARK   90  A    between atoms: _209  and  _210
REMARK   91  A    between atoms: _209  and  _212
REMARK   92  A    between atoms: _212  and  _213
REMARK   93  A    between atoms: _217  and  _218
REMARK   94  A    between atoms: _223  and  _225
REMARK   95  A    between atoms: _225  and  _226
REMARK   96  A    between atoms: _225  and  _228
REMARK   97  A    between atoms: _228  and  _229
REMARK   98  A    between atoms: _233  and  _234
REMARK   99  A    between atoms: _239  and  _241
REMARK  100  A    between atoms: _241  and  _242
REMARK  101  A    between atoms: _241  and  _244
REMARK  102  A    between atoms: _247  and  _249
REMARK  103  A    between atoms: _249  and  _250
REMARK  104  A    between atoms: _249  and  _252
REMARK  105  A    between atoms: _252  and  _253
REMARK  106  A    between atoms: _258  and  _260
REMARK  107  A    between atoms: _260  and  _261
REMARK  108  A    between atoms: _260  and  _263
REMARK  109  A    between atoms: _263  and  _264
REMARK  110  A    between atoms: _267  and  _269
REMARK  111  A    between atoms: _269  and  _270
REMARK  112  A    between atoms: _269  and  _272
REMARK  113  A    between atoms: _272  and  _273
REMARK  114  A    between atoms: _276  and  _278
REMARK  115  A    between atoms: _278  and  _279
REMARK  116  A    between atoms: _281  and  _283
REMARK  117  A    between atoms: _283  and  _284
REMARK  118  A    between atoms: _283  and  _286
REMARK  119  A    between atoms: _286  and  _287
REMARK  120  A    between atoms: _287  and  _288
REMARK  121  A    between atoms: _288  and  _289
REMARK  122  A    between atoms: _298  and  _300
REMARK  123  A    between atoms: _300  and  _301
REMARK  124  A    between atoms: _300  and  _303
REMARK  125  A    between atoms: _303  and  _304
REMARK  126  A    between atoms: _309  and  _311
REMARK  127  A    between atoms: _311  and  _312
REMARK  128  A    between atoms: _311  and  _314
REMARK  129  A    between atoms: _314  and  _315
REMARK  130  A    between atoms: _315  and  _316
REMARK  131  A    between atoms: _316  and  _317
REMARK  132  A    between atoms: _326  and  _328
REMARK  133  A    between atoms: _328  and  _329
REMARK  134  A    between atoms: _328  and  _331
REMARK  135  A    between atoms: _331  and  _332
REMARK  136  A    between atoms: _335  and  _337
REMARK  137  A    between atoms: _337  and  _338
REMARK  138  A    between atoms: _337  and  _340
REMARK  139  A    between atoms: _340  and  _341
REMARK  140  A    between atoms: _344  and  _346
REMARK  141  A    between atoms: _346  and  _347
REMARK  142  A    between atoms: _346  and  _349
REMARK  143  A    between atoms: _349  and  _350
REMARK  144  A    between atoms: _353  and  _355
REMARK  145  A    between atoms: _355  and  _356
REMARK  146  A    between atoms: _355  and  _358
REMARK  147  A    between atoms: _358  and  _359
REMARK  148  A    between atoms: _362  and  _364
REMARK  149  A    between atoms: _364  and  _365
REMARK  150  A    between atoms: _364  and  _367
REMARK  151  A    between atoms: _367  and  _368
REMARK  152  A    between atoms: _371  and  _373
REMARK  153  A    between atoms: _373  and  _374
REMARK  154  A    between atoms: _376  and  _378
REMARK  155  A    between atoms: _378  and  _379
REMARK  156  A    between atoms: _382  and  _384
REMARK  157  A    between atoms: _384  and  _385
REMARK  158  A    between atoms: _384  and  _387
REMARK  159  A    between atoms: _387  and  _388
REMARK  160  A    between atoms: _391  and  _393
REMARK  161  A    between atoms: _393  and  _394
REMARK  162  A    between atoms: _393  and  _396
REMARK  163  A    between atoms: _396  and  _397
REMARK  164  A    between atoms: _400  and  _402
REMARK  165  A    between atoms: _402  and  _403
REMARK  166  A    between atoms: _402  and  _405
REMARK  167  A    between atoms: _405  and  _406
REMARK  168  A    between atoms: _409  and  _411
REMARK  169  A    between atoms: _411  and  _412
REMARK  170  A    between atoms: _411  and  _414
REMARK  171  A    between atoms: _417  and  _419
REMARK  172  A    between atoms: _419  and  _420
REMARK  173  A    between atoms: _419  and  _422
REMARK  174  A    between atoms: _422  and  _423
REMARK  175  A    between atoms: _426  and  _428
REMARK  176  A    between atoms: _428  and  _429
REMARK  177  A    between atoms: _428  and  _431
REMARK  178  A    between atoms: _431  and  _432
REMARK  179  A    between atoms: _432  and  _433
REMARK  180  A    between atoms: _433  and  _434
REMARK  181  A    between atoms: _434  and  _435
REMARK  182  A    between atoms: _439  and  _441
REMARK  183  A    between atoms: _441  and  _442
REMARK  184  A    between atoms: _441  and  _444
REMARK  185  A    between atoms: _444  and  _445
REMARK  186  A    between atoms: _445  and  _446
REMARK  187  A    between atoms: _448  and  _450
REMARK  188  A    between atoms: _450  and  _451
REMARK  189  A    between atoms: _450  and  _453
REMARK  190  A    between atoms: _453  and  _454
REMARK  191  A    between atoms: _457  and  _459
REMARK  192  A    between atoms: _459  and  _460
REMARK  193  A    between atoms: _462  and  _464
REMARK  194  A    between atoms: _464  and  _465
REMARK  195  A    between atoms: _467  and  _469
REMARK  196  A    between atoms: _469  and  _470
REMARK  197  A    between atoms: _469  and  _472
REMARK  198  A    between atoms: _472  and  _473
REMARK  199  A    between atoms: _476  and  _478
REMARK  200  A    between atoms: _478  and  _479
REMARK  201  A    between atoms: _481  and  _483
REMARK  202  A    between atoms: _483  and  _484
REMARK  203  A    between atoms: _486  and  _488
REMARK  204  A    between atoms: _488  and  _489
REMARK  205  A    between atoms: _488  and  _491
REMARK  206  A    between atoms: _491  and  _492
REMARK  207  A    between atoms: _498  and  _500
REMARK  208  A    between atoms: _500  and  _501
REMARK  209  A    between atoms: _500  and  _503
REMARK  210  A    between atoms: _503  and  _504
REMARK  211  A    between atoms: _507  and  _509
REMARK  212  A    between atoms: _509  and  _510
REMARK  213  A    between atoms: _509  and  _512
REMARK  214  A    between atoms: _515  and  _517
REMARK  215  A    between atoms: _517  and  _518
REMARK  216  A    between atoms: _517  and  _520
REMARK  217  A    between atoms: _520  and  _521
REMARK  218  A    between atoms: _525  and  _526
REMARK  219  A    between atoms: _531  and  _533
REMARK  220  A    between atoms: _533  and  _534
REMARK  221  A    between atoms: _533  and  _536
REMARK  222  A    between atoms: _536  and  _537
REMARK  223  A    between atoms: _541  and  _542
REMARK  224  A    between atoms: _547  and  _549
REMARK  225  A    between atoms: _549  and  _550
REMARK  226  A    between atoms: _549  and  _552
REMARK  227  A    between atoms: _555  and  _557
REMARK  228  A    between atoms: _557  and  _558
REMARK  229  A    between atoms: _557  and  _560
REMARK  230  A    between atoms: _560  and  _561
REMARK  231  A    between atoms: _566  and  _568
REMARK  232  A    between atoms: _568  and  _569
REMARK  233  A    between atoms: _568  and  _571
REMARK  234  A    between atoms: _571  and  _572
REMARK  235  A    between atoms: _575  and  _577
REMARK  236  A    between atoms: _577  and  _578
REMARK  237  A    between atoms: _577  and  _580
REMARK  238  A    between atoms: _580  and  _581
REMARK  239  A    between atoms: _584  and  _586
REMARK  240  A    between atoms: _586  and  _587
REMARK  241  A    between atoms: _589  and  _591
REMARK  242  A    between atoms: _591  and  _592
REMARK  243  A    between atoms: _591  and  _594
REMARK  244  A    between atoms: _594  and  _595
REMARK  245  A    between atoms: _595  and  _596
REMARK  246  A    between atoms: _596  and  _597
REMARK  247  A    between atoms: _606  and  _608
REMARK  248  A    between atoms: _608  and  _609
REMARK  249  A    between atoms: _608  and  _611
REMARK  250  A    between atoms: _611  and  _612
REMARK                            x       y       z     vdW  Elec       q    Type
REMARK                         _______ _______ _______ _____ _____    ______ ____
ROOT
ATOM      1  O   HOH     1      13.723  15.612  11.276  0.00  0.00    +0.000 OA
ENDROOT
TORSDOF 0
REMARK  Name = ../refined-set-2016/1w5x/1w5x_pocket.pdb
REMARK  250 active torsions:
REMARK  status: ('A' for Active; 'I' for Inactive)
REMARK    1  A    between atoms: _1  and  _3
REMARK    2  A    between atoms: _3  and  _4
REMARK    3  A    between atoms: _3  and  _6
REMARK    4  A    between atoms: _6  and  _7
REMARK    5  A    between atoms: _7  and  _8
REMARK    6  A    between atoms: _8  and  _9
REMARK    7  A    between atoms: _18  and  _20
REMARK    8  A    between atoms: _20  and  _21
REMARK    9  A    between atoms: _20  and  _23
REMARK   10  A    between atoms: _23  and  _24
REMARK   11  A    between atoms: _27  and  _29
REMARK   12  A    between atoms: _29  and  _30
REMARK   13  A    between atoms: _29  and  _32
REMARK   14  A    between atoms: _32  and  _33
REMARK   15  A    between atoms: _36  and  _38
REMARK   16  A    between atoms: _38  and  _39
REMARK   17  A    between atoms: _38  and  _41
REMARK   18  A    between atoms: _41  and  _42
REMARK   19  A    between atoms: _45  and  _47
REMARK   20  A    between atoms: _47  and  _48
REMARK   21  A    between atoms: _47  and  _50
REMARK   22  A    between atoms: _50  and  _51
REMARK   23  A    between atoms: _54  and  _56
REMARK   24  A    between atoms: _56  and  _57
REMARK   25  A    between atoms: _56  and  _59
REMARK   26  A    between atoms: _59  and  _60
REMARK   27  A    between atoms: _63  and  _65
REMARK   28  A    between atoms: _65  and  _66
REMARK   29  A    between atoms: _68  and  _70
REMARK   30  A    between atoms: _70  and  _71
REMARK   31  A    between atoms: _74  and  _76
REMARK   32  A    between atoms: _76  and  _77
REMARK   33  A    between atoms: _76  and  _79
REMARK   34  A    between atoms: _79  and  _80
REMARK   35  A    between atoms: _83  and  _85
REMARK   36  A    between atoms: _85  and  _86
REMARK   37  A    between atoms: _85  and  _88
REMARK   38  A    between atoms: _88  and  _89
REMARK   39  A    between atoms: _92  and  _94
REMARK   40  A    between atoms: _94  and  _95
REMARK   41  A    between atoms: _94  and  _97
REMARK   42  A    between atoms: _97  and  _98
REMARK   43  A    between atoms: _101  and  _103
REMARK   44  A    between atoms: _103  and  _104
REMARK   45  A    between atoms: _103  and  _106
REMARK   46  A    between atoms: _109  and  _111
REMARK   47  A    between atoms: _111  and  _112
REMARK   48  A    between atoms: _111  and  _114
REMARK   49  A    between atoms: _114  and  _115
REMARK   50  A    between atoms: _118  and  _120
REMARK   51  A    between atoms: _120  and  _121
REMARK   52  A    between atoms: _120  and  _123
REMARK   53  A    between atoms: _123  and  _124
REMARK   54  A    between atoms: _124  and  _125
REMARK   55  A    between atoms: _125  and  _126
REMARK   56  A    between atoms: _126  and  _127
REMARK   57  A    between atoms: _131  and  _133
REMARK   58  A    between atoms: _133  and  _134
REMARK   59  A    between atoms: _133  and  _136
REMARK   60  A    between atoms: _136  and  _137
REMARK   61  A    between atoms: _137  and  _138
REMARK   62  A    between atoms: _140  and  _142
REMARK   63  A    between atoms: _142  and  _143
REMARK   64  A    between atoms: _142  and  _145
REMARK   65  A    between atoms: _145  and  _146
REMARK   66  A    between atoms: _149  and  _151
REMARK   67  A    between atoms: _151  and  _152
REMARK   68  A    between atoms: _154  and  _156
REMARK   69  A    between atoms: _156  and  _157
REMARK   70  A    between atoms: _159  and  _161
REMARK   71  A    between atoms: _161  and  _162
REMARK   72  A    between atoms: _161  and  _164
REMARK   73  A    between atoms: _164  and  _165
REMARK   74  A    between atoms: _168  and  _170
REMARK   75  A    between atoms: _170  and  _171
REMARK   76  A    between atoms: _173  and  _175
REMARK   77  A    between atoms: _175  and  _176
REMARK   78  A    between atoms: _178  and  _180
REMARK   79  A    between atoms: _180  and  _181
REMARK   80  A    between atoms: _180  and  _183
REMARK   81  A    between atoms: _183  and  _184
REMARK   82  A    between atoms: _190  and  _192
REMARK   83  A    between atoms: _192  and  _193
REMARK   84  A    between atoms: _192  and  _195
REMARK   85  A    between atoms: _195  and  _196
REMARK   86  A    between atoms: _199  and  _201
REMARK   87  A    between atoms: _201  and  _202
REMARK   88  A    between atoms: _201  and  _204
REMARK   89  A    between atoms: _207  and  _209
REMARK   90  A    between atoms: _209  and  _210
REMARK   91  A    between atoms: _209  and  _212
REMARK   92  A    between atoms: _212  and  _213
REMARK   93  A    between atoms: _217  and  _218
REMARK   94  A    between atoms: _223  and  _225
REMARK   95  A    between atoms: _225  and  _226
REMARK   96  A    between atoms: _225  and  _228
REMARK   97  A    between atoms: _228  and  _229
REMARK   98  A    between atoms: _233  and  _234
REMARK   99  A    between atoms: _239  and  _241
REMARK  100  A    between atoms: _241  and  _242
REMARK  101  A    between atoms: _241  and  _244
REMARK  102  A    between atoms: _247  and  _249
REMARK  103  A    between atoms: _249  and  _250
REMARK  104  A    between atoms: _249  and  _252
REMARK  105  A    between atoms: _252  and  _253
REMARK  106  A    between atoms: _258  and  _260
REMARK  107  A    between atoms: _260  and  _261
REMARK  108  A    between atoms: _260  and  _263
REMARK  109  A    between atoms: _263  and  _264
REMARK  110  A    between atoms: _267  and  _269
REMARK  111  A    between atoms: _269  and  _270
REMARK  112  A    between atoms: _269  and  _272
REMARK  113  A    between atoms: _272  and  _273
REMARK  114  A    between atoms: _276  and  _278
REMARK  115  A    between atoms: _278  and  _279
REMARK  116  A    between atoms: _281  and  _283
REMARK  117  A    between atoms: _283  and  _284
REMARK  118  A    between atoms: _283  and  _286
REMARK  119  A    between atoms: _286  and  _287
REMARK  120  A    between atoms: _287  and  _288
REMARK  121  A    between atoms: _288  and  _289
REMARK  122  A    between atoms: _298  and  _300
REMARK  123  A    between atoms: _300  and  _301
REMARK  124  A    between atoms: _300  and  _303
REMARK  125  A    between atoms: _303  and  _304
REMARK  126  A    between atoms: _309  and  _311
REMARK  127  A    between atoms: _311  and  _312
REMARK  128  A    between atoms: _311  and  _314
REMARK  129  A    between atoms: _314  and  _315
REMARK  130  A    between atoms: _315  and  _316
REMARK  131  A    between atoms: _316  and  _317
REMARK  132  A    between atoms: _326  and  _328
REMARK  133  A    between atoms: _328  and  _329
REMARK  134  A    between atoms: _328  and  _331
REMARK  135  A    between atoms: _331  and  _332
REMARK  136  A    between atoms: _335  and  _337
REMARK  137  A    between atoms: _337  and  _338
REMARK  138  A    between atoms: _337  and  _340
REMARK  139  A    between atoms: _340  and  _341
REMARK  140  A    between atoms: _344  and  _346
REMARK  141  A    between atoms: _346  and  _347
REMARK  142  A    between atoms: _346  and  _349
REMARK  143  A    between atoms: _349  and  _350
REMARK  144  A    between atoms: _353  and  _355
REMARK  145  A    between atoms: _355  and  _356
REMARK  146  A    between atoms: _355  and  _358
REMARK  147  A    between atoms: _358  and  _359
REMARK  148  A    between atoms: _362  and  _364
REMARK  149  A    between atoms: _364  and  _365
REMARK  150  A    between atoms: _364  and  _367
REMARK  151  A    between atoms: _367  and  _368
REMARK  152  A    between atoms: _371  and  _373
REMARK  153  A    between atoms: _373  and  _374
REMARK  154  A    between atoms: _376  and  _378
REMARK  155  A    between atoms: _378  and  _379
REMARK  156  A    between atoms: _382  and  _384
REMARK  157  A    between atoms: _384  and  _385
REMARK  158  A    between atoms: _384  and  _387
REMARK  159  A    between atoms: _387  and  _388
REMARK  160  A    between atoms: _391  and  _393
REMARK  161  A    between atoms: _393  and  _394
REMARK  162  A    between atoms: _393  and  _396
REMARK  163  A    between atoms: _396  and  _397
REMARK  164  A    between atoms: _400  and  _402
REMARK  165  A    between atoms: _402  and  _403
REMARK  166  A    between atoms: _402  and  _405
REMARK  167  A    between atoms: _405  and  _406
REMARK  168  A    between atoms: _409  and  _411
REMARK  169  A    between atoms: _411  and  _412
REMARK  170  A    between atoms: _411  and  _414
REMARK  171  A    between atoms: _417  and  _419
REMARK  172  A    between atoms: _419  and  _420
REMARK  173  A    between atoms: _419  and  _422
REMARK  174  A    between atoms: _422  and  _423
REMARK  175  A    between atoms: _426  and  _428
REMARK  176  A    between atoms: _428  and  _429
REMARK  177  A    between atoms: _428  and  _431
REMARK  178  A    between atoms: _431  and  _432
REMARK  179  A    between atoms: _432  and  _433
REMARK  180  A    between atoms: _433  and  _434
REMARK  181  A    between atoms: _434  and  _435
REMARK  182  A    between atoms: _439  and  _441
REMARK  183  A    between atoms: _441  and  _442
REMARK  184  A    between atoms: _441  and  _444
REMARK  185  A    between atoms: _444  and  _445
REMARK  186  A    between atoms: _445  and  _446
REMARK  187  A    between atoms: _448  and  _450
REMARK  188  A    between atoms: _450  and  _451
REMARK  189  A    between atoms: _450  and  _453
REMARK  190  A    between atoms: _453  and  _454
REMARK  191  A    between atoms: _457  and  _459
REMARK  192  A    between atoms: _459  and  _460
REMARK  193  A    between atoms: _462  and  _464
REMARK  194  A    between atoms: _464  and  _465
REMARK  195  A    between atoms: _467  and  _469
REMARK  196  A    between atoms: _469  and  _470
REMARK  197  A    between atoms: _469  and  _472
REMARK  198  A    between atoms: _472  and  _473
REMARK  199  A    between atoms: _476  and  _478
REMARK  200  A    between atoms: _478  and  _479
REMARK  201  A    between atoms: _481  and  _483
REMARK  202  A    between atoms: _483  and  _484
REMARK  203  A    between atoms: _486  and  _488
REMARK  204  A    between atoms: _488  and  _489
REMARK  205  A    between atoms: _488  and  _491
REMARK  206  A    between atoms: _491  and  _492
REMARK  207  A    between atoms: _498  and  _500
REMARK  208  A    between atoms: _500  and  _501
REMARK  209  A    between atoms: _500  and  _503
REMARK  210  A    between atoms: _503  and  _504
REMARK  211  A    between atoms: _507  and  _509
REMARK  212  A    between atoms: _509  and  _510
REMARK  213  A    between atoms: _509  and  _512
REMARK  214  A    between atoms: _515  and  _517
REMARK  215  A    between atoms: _517  and  _518
REMARK  216  A    between atoms: _517  and  _520
REMARK  217  A    between atoms: _520  and  _521
REMARK  218  A    between atoms: _525  and  _526
REMARK  219  A    between atoms: _531  and  _533
REMARK  220  A    between atoms: _533  and  _534
REMARK  221  A    between atoms: _533  and  _536
REMARK  222  A    between atoms: _536  and  _537
REMARK  223  A    between atoms: _541  and  _542
REMARK  224  A    between atoms: _547  and  _549
REMARK  225  A    between atoms: _549  and  _550
REMARK  226  A    between atoms: _549  and  _552
REMARK  227  A    between atoms: _555  and  _557
REMARK  228  A    between atoms: _557  and  _558
REMARK  229  A    between atoms: _557  and  _560
REMARK  230  A    between atoms: _560  and  _561
REMARK  231  A    between atoms: _566  and  _568
REMARK  232  A    between atoms: _568  and  _569
REMARK  233  A    between atoms: _568  and  _571
REMARK  234  A    between atoms: _571  and  _572
REMARK  235  A    between atoms: _575  and  _577
REMARK  236  A    between atoms: _577  and  _578
REMARK  237  A    between atoms: _577  and  _580
REMARK  238  A    between atoms: _580  and  _581
REMARK  239  A    between atoms: _584  and  _586
REMARK  240  A    between atoms: _586  and  _587
REMARK  241  A    between atoms: _589  and  _591
REMARK  242  A    between atoms: _591  and  _592
REMARK  243  A    between atoms: _591  and  _594
REMARK  244  A    between atoms: _594  and  _595
REMARK  245  A    between atoms: _595  and  _596
REMARK  246  A    between atoms: _596  and  _597
REMARK  247  A    between atoms: _606  and  _608
REMARK  248  A    between atoms: _608  and  _609
REMARK  249  A    between atoms: _608  and  _611
REMARK  250  A    between atoms: _611  and  _612
REMARK                            x       y       z     vdW  Elec       q    Type
REMARK                         _______ _______ _______ _____ _____    ______ ____
ROOT
ATOM      1  O   HOH     1      10.307  17.140  13.973  0.00  0.00    +0.000 OA
ENDROOT
TORSDOF 0
REMARK  Name = ../refined-set-2016/1w5x/1w5x_pocket.pdb
REMARK  250 active torsions:
REMARK  status: ('A' for Active; 'I' for Inactive)
REMARK    1  A    between atoms: _1  and  _3
REMARK    2  A    between atoms: _3  and  _4
REMARK    3  A    between atoms: _3  and  _6
REMARK    4  A    between atoms: _6  and  _7
REMARK    5  A    between atoms: _7  and  _8
REMARK    6  A    between atoms: _8  and  _9
REMARK    7  A    between atoms: _18  and  _20
REMARK    8  A    between atoms: _20  and  _21
REMARK    9  A    between atoms: _20  and  _23
REMARK   10  A    between atoms: _23  and  _24
REMARK   11  A    between atoms: _27  and  _29
REMARK   12  A    between atoms: _29  and  _30
REMARK   13  A    between atoms: _29  and  _32
REMARK   14  A    between atoms: _32  and  _33
REMARK   15  A    between atoms: _36  and  _38
REMARK   16  A    between atoms: _38  and  _39
REMARK   17  A    between atoms: _38  and  _41
REMARK   18  A    between atoms: _41  and  _42
REMARK   19  A    between atoms: _45  and  _47
REMARK   20  A    between atoms: _47  and  _48
REMARK   21  A    between atoms: _47  and  _50
REMARK   22  A    between atoms: _50  and  _51
REMARK   23  A    between atoms: _54  and  _56
REMARK   24  A    between atoms: _56  and  _57
REMARK   25  A    between atoms: _56  and  _59
REMARK   26  A    between atoms: _59  and  _60
REMARK   27  A    between atoms: _63  and  _65
REMARK   28  A    between atoms: _65  and  _66
REMARK   29  A    between atoms: _68  and  _70
REMARK   30  A    between atoms: _70  and  _71
REMARK   31  A    between atoms: _74  and  _76
REMARK   32  A    between atoms: _76  and  _77
REMARK   33  A    between atoms: _76  and  _79
REMARK   34  A    between atoms: _79  and  _80
REMARK   35  A    between atoms: _83  and  _85
REMARK   36  A    between atoms: _85  and  _86
REMARK   37  A    between atoms: _85  and  _88
REMARK   38  A    between atoms: _88  and  _89
REMARK   39  A    between atoms: _92  and  _94
REMARK   40  A    between atoms: _94  and  _95
REMARK   41  A    between atoms: _94  and  _97
REMARK   42  A    between atoms: _97  and  _98
REMARK   43  A    between atoms: _101  and  _103
REMARK   44  A    between atoms: _103  and  _104
REMARK   45  A    between atoms: _103  and  _106
REMARK   46  A    between atoms: _109  and  _111
REMARK   47  A    between atoms: _111  and  _112
REMARK   48  A    between atoms: _111  and  _114
REMARK   49  A    between atoms: _114  and  _115
REMARK   50  A    between atoms: _118  and  _120
REMARK   51  A    between atoms: _120  and  _121
REMARK   52  A    between atoms: _120  and  _123
REMARK   53  A    between atoms: _123  and  _124
REMARK   54  A    between atoms: _124  and  _125
REMARK   55  A    between atoms: _125  and  _126
REMARK   56  A    between atoms: _126  and  _127
REMARK   57  A    between atoms: _131  and  _133
REMARK   58  A    between atoms: _133  and  _134
REMARK   59  A    between atoms: _133  and  _136
REMARK   60  A    between atoms: _136  and  _137
REMARK   61  A    between atoms: _137  and  _138
REMARK   62  A    between atoms: _140  and  _142
REMARK   63  A    between atoms: _142  and  _143
REMARK   64  A    between atoms: _142  and  _145
REMARK   65  A    between atoms: _145  and  _146
REMARK   66  A    between atoms: _149  and  _151
REMARK   67  A    between atoms: _151  and  _152
REMARK   68  A    between atoms: _154  and  _156
REMARK   69  A    between atoms: _156  and  _157
REMARK   70  A    between atoms: _159  and  _161
REMARK   71  A    between atoms: _161  and  _162
REMARK   72  A    between atoms: _161  and  _164
REMARK   73  A    between atoms: _164  and  _165
REMARK   74  A    between atoms: _168  and  _170
REMARK   75  A    between atoms: _170  and  _171
REMARK   76  A    between atoms: _173  and  _175
REMARK   77  A    between atoms: _175  and  _176
REMARK   78  A    between atoms: _178  and  _180
REMARK   79  A    between atoms: _180  and  _181
REMARK   80  A    between atoms: _180  and  _183
REMARK   81  A    between atoms: _183  and  _184
REMARK   82  A    between atoms: _190  and  _192
REMARK   83  A    between atoms: _192  and  _193
REMARK   84  A    between atoms: _192  and  _195
REMARK   85  A    between atoms: _195  and  _196
REMARK   86  A    between atoms: _199  and  _201
REMARK   87  A    between atoms: _201  and  _202
REMARK   88  A    between atoms: _201  and  _204
REMARK   89  A    between atoms: _207  and  _209
REMARK   90  A    between atoms: _209  and  _210
REMARK   91  A    between atoms: _209  and  _212
REMARK   92  A    between atoms: _212  and  _213
REMARK   93  A    between atoms: _217  and  _218
REMARK   94  A    between atoms: _223  and  _225
REMARK   95  A    between atoms: _225  and  _226
REMARK   96  A    between atoms: _225  and  _228
REMARK   97  A    between atoms: _228  and  _229
REMARK   98  A    between atoms: _233  and  _234
REMARK   99  A    between atoms: _239  and  _241
REMARK  100  A    between atoms: _241  and  _242
REMARK  101  A    between atoms: _241  and  _244
REMARK  102  A    between atoms: _247  and  _249
REMARK  103  A    between atoms: _249  and  _250
REMARK  104  A    between atoms: _249  and  _252
REMARK  105  A    between atoms: _252  and  _253
REMARK  106  A    between atoms: _258  and  _260
REMARK  107  A    between atoms: _260  and  _261
REMARK  108  A    between atoms: _260  and  _263
REMARK  109  A    between atoms: _263  and  _264
REMARK  110  A    between atoms: _267  and  _269
REMARK  111  A    between atoms: _269  and  _270
REMARK  112  A    between atoms: _269  and  _272
REMARK  113  A    between atoms: _272  and  _273
REMARK  114  A    between atoms: _276  and  _278
REMARK  115  A    between atoms: _278  and  _279
REMARK  116  A    between atoms: _281  and  _283
REMARK  117  A    between atoms: _283  and  _284
REMARK  118  A    between atoms: _283  and  _286
REMARK  119  A    between atoms: _286  and  _287
REMARK  120  A    between atoms: _287  and  _288
REMARK  121  A    between atoms: _288  and  _289
REMARK  122  A    between atoms: _298  and  _300
REMARK  123  A    between atoms: _300  and  _301
REMARK  124  A    between atoms: _300  and  _303
REMARK  125  A    between atoms: _303  and  _304
REMARK  126  A    between atoms: _309  and  _311
REMARK  127  A    between atoms: _311  and  _312
REMARK  128  A    between atoms: _311  and  _314
REMARK  129  A    between atoms: _314  and  _315
REMARK  130  A    between atoms: _315  and  _316
REMARK  131  A    between atoms: _316  and  _317
REMARK  132  A    between atoms: _326  and  _328
REMARK  133  A    between atoms: _328  and  _329
REMARK  134  A    between atoms: _328  and  _331
REMARK  135  A    between atoms: _331  and  _332
REMARK  136  A    between atoms: _335  and  _337
REMARK  137  A    between atoms: _337  and  _338
REMARK  138  A    between atoms: _337  and  _340
REMARK  139  A    between atoms: _340  and  _341
REMARK  140  A    between atoms: _344  and  _346
REMARK  141  A    between atoms: _346  and  _347
REMARK  142  A    between atoms: _346  and  _349
REMARK  143  A    between atoms: _349  and  _350
REMARK  144  A    between atoms: _353  and  _355
REMARK  145  A    between atoms: _355  and  _356
REMARK  146  A    between atoms: _355  and  _358
REMARK  147  A    between atoms: _358  and  _359
REMARK  148  A    between atoms: _362  and  _364
REMARK  149  A    between atoms: _364  and  _365
REMARK  150  A    between atoms: _364  and  _367
REMARK  151  A    between atoms: _367  and  _368
REMARK  152  A    between atoms: _371  and  _373
REMARK  153  A    between atoms: _373  and  _374
REMARK  154  A    between atoms: _376  and  _378
REMARK  155  A    between atoms: _378  and  _379
REMARK  156  A    between atoms: _382  and  _384
REMARK  157  A    between atoms: _384  and  _385
REMARK  158  A    between atoms: _384  and  _387
REMARK  159  A    between atoms: _387  and  _388
REMARK  160  A    between atoms: _391  and  _393
REMARK  161  A    between atoms: _393  and  _394
REMARK  162  A    between atoms: _393  and  _396
REMARK  163  A    between atoms: _396  and  _397
REMARK  164  A    between atoms: _400  and  _402
REMARK  165  A    between atoms: _402  and  _403
REMARK  166  A    between atoms: _402  and  _405
REMARK  167  A    between atoms: _405  and  _406
REMARK  168  A    between atoms: _409  and  _411
REMARK  169  A    between atoms: _411  and  _412
REMARK  170  A    between atoms: _411  and  _414
REMARK  171  A    between atoms: _417  and  _419
REMARK  172  A    between atoms: _419  and  _420
REMARK  173  A    between atoms: _419  and  _422
REMARK  174  A    between atoms: _422  and  _423
REMARK  175  A    between atoms: _426  and  _428
REMARK  176  A    between atoms: _428  and  _429
REMARK  177  A    between atoms: _428  and  _431
REMARK  178  A    between atoms: _431  and  _432
REMARK  179  A    between atoms: _432  and  _433
REMARK  180  A    between atoms: _433  and  _434
REMARK  181  A    between atoms: _434  and  _435
REMARK  182  A    between atoms: _439  and  _441
REMARK  183  A    between atoms: _441  and  _442
REMARK  184  A    between atoms: _441  and  _444
REMARK  185  A    between atoms: _444  and  _445
REMARK  186  A    between atoms: _445  and  _446
REMARK  187  A    between atoms: _448  and  _450
REMARK  188  A    between atoms: _450  and  _451
REMARK  189  A    between atoms: _450  and  _453
REMARK  190  A    between atoms: _453  and  _454
REMARK  191  A    between atoms: _457  and  _459
REMARK  192  A    between atoms: _459  and  _460
REMARK  193  A    between atoms: _462  and  _464
REMARK  194  A    between atoms: _464  and  _465
REMARK  195  A    between atoms: _467  and  _469
REMARK  196  A    between atoms: _469  and  _470
REMARK  197  A    between atoms: _469  and  _472
REMARK  198  A    between atoms: _472  and  _473
REMARK  199  A    between atoms: _476  and  _478
REMARK  200  A    between atoms: _478  and  _479
REMARK  201  A    between atoms: _481  and  _483
REMARK  202  A    between atoms: _483  and  _484
REMARK  203  A    between atoms: _486  and  _488
REMARK  204  A    between atoms: _488  and  _489
REMARK  205  A    between atoms: _488  and  _491
REMARK  206  A    between atoms: _491  and  _492
REMARK  207  A    between atoms: _498  and  _500
REMARK  208  A    between atoms: _500  and  _501
REMARK  209  A    between atoms: _500  and  _503
REMARK  210  A    between atoms: _503  and  _504
REMARK  211  A    between atoms: _507  and  _509
REMARK  212  A    between atoms: _509  and  _510
REMARK  213  A    between atoms: _509  and  _512
REMARK  214  A    between atoms: _515  and  _517
REMARK  215  A    between atoms: _517  and  _518
REMARK  216  A    between atoms: _517  and  _520
REMARK  217  A    between atoms: _520  and  _521
REMARK  218  A    between atoms: _525  and  _526
REMARK  219  A    between atoms: _531  and  _533
REMARK  220  A    between atoms: _533  and  _534
REMARK  221  A    between atoms: _533  and  _536
REMARK  222  A    between atoms: _536  and  _537
REMARK  223  A    between atoms: _541  and  _542
REMARK  224  A    between atoms: _547  and  _549
REMARK  225  A    between atoms: _549  and  _550
REMARK  226  A    between atoms: _549  and  _552
REMARK  227  A    between atoms: _555  and  _557
REMARK  228  A    between atoms: _557  and  _558
REMARK  229  A    between atoms: _557  and  _560
REMARK  230  A    between atoms: _560  and  _561
REMARK  231  A    between atoms: _566  and  _568
REMARK  232  A    between atoms: _568  and  _569
REMARK  233  A    between atoms: _568  and  _571
REMARK  234  A    between atoms: _571  and  _572
REMARK  235  A    between atoms: _575  and  _577
REMARK  236  A    between atoms: _577  and  _578
REMARK  237  A    between atoms: _577  and  _580
REMARK  238  A    between atoms: _580  and  _581
REMARK  239  A    between atoms: _584  and  _586
REMARK  240  A    between atoms: _586  and  _587
REMARK  241  A    between atoms: _589  and  _591
REMARK  242  A    between atoms: _591  and  _592
REMARK  243  A    between atoms: _591  and  _594
REMARK  244  A    between atoms: _594  and  _595
REMARK  245  A    between atoms: _595  and  _596
REMARK  246  A    between atoms: _596  and  _597
REMARK  247  A    between atoms: _606  and  _608
REMARK  248  A    between atoms: _608  and  _609
REMARK  249  A    between atoms: _608  and  _611
REMARK  250  A    between atoms: _611  and  _612
REMARK                            x       y       z     vdW  Elec       q    Type
REMARK                         _______ _______ _______ _____ _____    ______ ____
ROOT
ATOM      1  O   HOH     1      20.330  15.909  -3.701  0.00  0.00    +0.000 OA
ENDROOT
TORSDOF 0
REMARK  Name = ../refined-set-2016/1w5x/1w5x_pocket.pdb
REMARK  250 active torsions:
REMARK  status: ('A' for Active; 'I' for Inactive)
REMARK    1  A    between atoms: _1  and  _3
REMARK    2  A    between atoms: _3  and  _4
REMARK    3  A    between atoms: _3  and  _6
REMARK    4  A    between atoms: _6  and  _7
REMARK    5  A    between atoms: _7  and  _8
REMARK    6  A    between atoms: _8  and  _9
REMARK    7  A    between atoms: _18  and  _20
REMARK    8  A    between atoms: _20  and  _21
REMARK    9  A    between atoms: _20  and  _23
REMARK   10  A    between atoms: _23  and  _24
REMARK   11  A    between atoms: _27  and  _29
REMARK   12  A    between atoms: _29  and  _30
REMARK   13  A    between atoms: _29  and  _32
REMARK   14  A    between atoms: _32  and  _33
REMARK   15  A    between atoms: _36  and  _38
REMARK   16  A    between atoms: _38  and  _39
REMARK   17  A    between atoms: _38  and  _41
REMARK   18  A    between atoms: _41  and  _42
REMARK   19  A    between atoms: _45  and  _47
REMARK   20  A    between atoms: _47  and  _48
REMARK   21  A    between atoms: _47  and  _50
REMARK   22  A    between atoms: _50  and  _51
REMARK   23  A    between atoms: _54  and  _56
REMARK   24  A    between atoms: _56  and  _57
REMARK   25  A    between atoms: _56  and  _59
REMARK   26  A    between atoms: _59  and  _60
REMARK   27  A    between atoms: _63  and  _65
REMARK   28  A    between atoms: _65  and  _66
REMARK   29  A    between atoms: _68  and  _70
REMARK   30  A    between atoms: _70  and  _71
REMARK   31  A    between atoms: _74  and  _76
REMARK   32  A    between atoms: _76  and  _77
REMARK   33  A    between atoms: _76  and  _79
REMARK   34  A    between atoms: _79  and  _80
REMARK   35  A    between atoms: _83  and  _85
REMARK   36  A    between atoms: _85  and  _86
REMARK   37  A    between atoms: _85  and  _88
REMARK   38  A    between atoms: _88  and  _89
REMARK   39  A    between atoms: _92  and  _94
REMARK   40  A    between atoms: _94  and  _95
REMARK   41  A    between atoms: _94  and  _97
REMARK   42  A    between atoms: _97  and  _98
REMARK   43  A    between atoms: _101  and  _103
REMARK   44  A    between atoms: _103  and  _104
REMARK   45  A    between atoms: _103  and  _106
REMARK   46  A    between atoms: _109  and  _111
REMARK   47  A    between atoms: _111  and  _112
REMARK   48  A    between atoms: _111  and  _114
REMARK   49  A    between atoms: _114  and  _115
REMARK   50  A    between atoms: _118  and  _120
REMARK   51  A    between atoms: _120  and  _121
REMARK   52  A    between atoms: _120  and  _123
REMARK   53  A    between atoms: _123  and  _124
REMARK   54  A    between atoms: _124  and  _125
REMARK   55  A    between atoms: _125  and  _126
REMARK   56  A    between atoms: _126  and  _127
REMARK   57  A    between atoms: _131  and  _133
REMARK   58  A    between atoms: _133  and  _134
REMARK   59  A    between atoms: _133  and  _136
REMARK   60  A    between atoms: _136  and  _137
REMARK   61  A    between atoms: _137  and  _138
REMARK   62  A    between atoms: _140  and  _142
REMARK   63  A    between atoms: _142  and  _143
REMARK   64  A    between atoms: _142  and  _145
REMARK   65  A    between atoms: _145  and  _146
REMARK   66  A    between atoms: _149  and  _151
REMARK   67  A    between atoms: _151  and  _152
REMARK   68  A    between atoms: _154  and  _156
REMARK   69  A    between atoms: _156  and  _157
REMARK   70  A    between atoms: _159  and  _161
REMARK   71  A    between atoms: _161  and  _162
REMARK   72  A    between atoms: _161  and  _164
REMARK   73  A    between atoms: _164  and  _165
REMARK   74  A    between atoms: _168  and  _170
REMARK   75  A    between atoms: _170  and  _171
REMARK   76  A    between atoms: _173  and  _175
REMARK   77  A    between atoms: _175  and  _176
REMARK   78  A    between atoms: _178  and  _180
REMARK   79  A    between atoms: _180  and  _181
REMARK   80  A    between atoms: _180  and  _183
REMARK   81  A    between atoms: _183  and  _184
REMARK   82  A    between atoms: _190  and  _192
REMARK   83  A    between atoms: _192  and  _193
REMARK   84  A    between atoms: _192  and  _195
REMARK   85  A    between atoms: _195  and  _196
REMARK   86  A    between atoms: _199  and  _201
REMARK   87  A    between atoms: _201  and  _202
REMARK   88  A    between atoms: _201  and  _204
REMARK   89  A    between atoms: _207  and  _209
REMARK   90  A    between atoms: _209  and  _210
REMARK   91  A    between atoms: _209  and  _212
REMARK   92  A    between atoms: _212  and  _213
REMARK   93  A    between atoms: _217  and  _218
REMARK   94  A    between atoms: _223  and  _225
REMARK   95  A    between atoms: _225  and  _226
REMARK   96  A    between atoms: _225  and  _228
REMARK   97  A    between atoms: _228  and  _229
REMARK   98  A    between atoms: _233  and  _234
REMARK   99  A    between atoms: _239  and  _241
REMARK  100  A    between atoms: _241  and  _242
REMARK  101  A    between atoms: _241  and  _244
REMARK  102  A    between atoms: _247  and  _249
REMARK  103  A    between atoms: _249  and  _250
REMARK  104  A    between atoms: _249  and  _252
REMARK  105  A    between atoms: _252  and  _253
REMARK  106  A    between atoms: _258  and  _260
REMARK  107  A    between atoms: _260  and  _261
REMARK  108  A    between atoms: _260  and  _263
REMARK  109  A    between atoms: _263  and  _264
REMARK  110  A    between atoms: _267  and  _269
REMARK  111  A    between atoms: _269  and  _270
REMARK  112  A    between atoms: _269  and  _272
REMARK  113  A    between atoms: _272  and  _273
REMARK  114  A    between atoms: _276  and  _278
REMARK  115  A    between atoms: _278  and  _279
REMARK  116  A    between atoms: _281  and  _283
REMARK  117  A    between atoms: _283  and  _284
REMARK  118  A    between atoms: _283  and  _286
REMARK  119  A    between atoms: _286  and  _287
REMARK  120  A    between atoms: _287  and  _288
REMARK  121  A    between atoms: _288  and  _289
REMARK  122  A    between atoms: _298  and  _300
REMARK  123  A    between atoms: _300  and  _301
REMARK  124  A    between atoms: _300  and  _303
REMARK  125  A    between atoms: _303  and  _304
REMARK  126  A    between atoms: _309  and  _311
REMARK  127  A    between atoms: _311  and  _312
REMARK  128  A    between atoms: _311  and  _314
REMARK  129  A    between atoms: _314  and  _315
REMARK  130  A    between atoms: _315  and  _316
REMARK  131  A    between atoms: _316  and  _317
REMARK  132  A    between atoms: _326  and  _328
REMARK  133  A    between atoms: _328  and  _329
REMARK  134  A    between atoms: _328  and  _331
REMARK  135  A    between atoms: _331  and  _332
REMARK  136  A    between atoms: _335  and  _337
REMARK  137  A    between atoms: _337  and  _338
REMARK  138  A    between atoms: _337  and  _340
REMARK  139  A    between atoms: _340  and  _341
REMARK  140  A    between atoms: _344  and  _346
REMARK  141  A    between atoms: _346  and  _347
REMARK  142  A    between atoms: _346  and  _349
REMARK  143  A    between atoms: _349  and  _350
REMARK  144  A    between atoms: _353  and  _355
REMARK  145  A    between atoms: _355  and  _356
REMARK  146  A    between atoms: _355  and  _358
REMARK  147  A    between atoms: _358  and  _359
REMARK  148  A    between atoms: _362  and  _364
REMARK  149  A    between atoms: _364  and  _365
REMARK  150  A    between atoms: _364  and  _367
REMARK  151  A    between atoms: _367  and  _368
REMARK  152  A    between atoms: _371  and  _373
REMARK  153  A    between atoms: _373  and  _374
REMARK  154  A    between atoms: _376  and  _378
REMARK  155  A    between atoms: _378  and  _379
REMARK  156  A    between atoms: _382  and  _384
REMARK  157  A    between atoms: _384  and  _385
REMARK  158  A    between atoms: _384  and  _387
REMARK  159  A    between atoms: _387  and  _388
REMARK  160  A    between atoms: _391  and  _393
REMARK  161  A    between atoms: _393  and  _394
REMARK  162  A    between atoms: _393  and  _396
REMARK  163  A    between atoms: _396  and  _397
REMARK  164  A    between atoms: _400  and  _402
REMARK  165  A    between atoms: _402  and  _403
REMARK  166  A    between atoms: _402  and  _405
REMARK  167  A    between atoms: _405  and  _406
REMARK  168  A    between atoms: _409  and  _411
REMARK  169  A    between atoms: _411  and  _412
REMARK  170  A    between atoms: _411  and  _414
REMARK  171  A    between atoms: _417  and  _419
REMARK  172  A    between atoms: _419  and  _420
REMARK  173  A    between atoms: _419  and  _422
REMARK  174  A    between atoms: _422  and  _423
REMARK  175  A    between atoms: _426  and  _428
REMARK  176  A    between atoms: _428  and  _429
REMARK  177  A    between atoms: _428  and  _431
REMARK  178  A    between atoms: _431  and  _432
REMARK  179  A    between atoms: _432  and  _433
REMARK  180  A    between atoms: _433  and  _434
REMARK  181  A    between atoms: _434  and  _435
REMARK  182  A    between atoms: _439  and  _441
REMARK  183  A    between atoms: _441  and  _442
REMARK  184  A    between atoms: _441  and  _444
REMARK  185  A    between atoms: _444  and  _445
REMARK  186  A    between atoms: _445  and  _446
REMARK  187  A    between atoms: _448  and  _450
REMARK  188  A    between atoms: _450  and  _451
REMARK  189  A    between atoms: _450  and  _453
REMARK  190  A    between atoms: _453  and  _454
REMARK  191  A    between atoms: _457  and  _459
REMARK  192  A    between atoms: _459  and  _460
REMARK  193  A    between atoms: _462  and  _464
REMARK  194  A    between atoms: _464  and  _465
REMARK  195  A    between atoms: _467  and  _469
REMARK  196  A    between atoms: _469  and  _470
REMARK  197  A    between atoms: _469  and  _472
REMARK  198  A    between atoms: _472  and  _473
REMARK  199  A    between atoms: _476  and  _478
REMARK  200  A    between atoms: _478  and  _479
REMARK  201  A    between atoms: _481  and  _483
REMARK  202  A    between atoms: _483  and  _484
REMARK  203  A    between atoms: _486  and  _488
REMARK  204  A    between atoms: _488  and  _489
REMARK  205  A    between atoms: _488  and  _491
REMARK  206  A    between atoms: _491  and  _492
REMARK  207  A    between atoms: _498  and  _500
REMARK  208  A    between atoms: _500  and  _501
REMARK  209  A    between atoms: _500  and  _503
REMARK  210  A    between atoms: _503  and  _504
REMARK  211  A    between atoms: _507  and  _509
REMARK  212  A    between atoms: _509  and  _510
REMARK  213  A    between atoms: _509  and  _512
REMARK  214  A    between atoms: _515  and  _517
REMARK  215  A    between atoms: _517  and  _518
REMARK  216  A    between atoms: _517  and  _520
REMARK  217  A    between atoms: _520  and  _521
REMARK  218  A    between atoms: _525  and  _526
REMARK  219  A    between atoms: _531  and  _533
REMARK  220  A    between atoms: _533  and  _534
REMARK  221  A    between atoms: _533  and  _536
REMARK  222  A    between atoms: _536  and  _537
REMARK  223  A    between atoms: _541  and  _542
REMARK  224  A    between atoms: _547  and  _549
REMARK  225  A    between atoms: _549  and  _550
REMARK  226  A    between atoms: _549  and  _552
REMARK  227  A    between atoms: _555  and  _557
REMARK  228  A    between atoms: _557  and  _558
REMARK  229  A    between atoms: _557  and  _560
REMARK  230  A    between atoms: _560  and  _561
REMARK  231  A    between atoms: _566  and  _568
REMARK  232  A    between atoms: _568  and  _569
REMARK  233  A    between atoms: _568  and  _571
REMARK  234  A    between atoms: _571  and  _572
REMARK  235  A    between atoms: _575  and  _577
REMARK  236  A    between atoms: _577  and  _578
REMARK  237  A    between atoms: _577  and  _580
REMARK  238  A    between atoms: _580  and  _581
REMARK  239  A    between atoms: _584  and  _586
REMARK  240  A    between atoms: _586  and  _587
REMARK  241  A    between atoms: _589  and  _591
REMARK  242  A    between atoms: _591  and  _592
REMARK  243  A    between atoms: _591  and  _594
REMARK  244  A    between atoms: _594  and  _595
REMARK  245  A    between atoms: _595  and  _596
REMARK  246  A    between atoms: _596  and  _597
REMARK  247  A    between atoms: _606  and  _608
REMARK  248  A    between atoms: _608  and  _609
REMARK  249  A    between atoms: _608  and  _611
REMARK  250  A    between atoms: _611  and  _612
REMARK                            x       y       z     vdW  Elec       q    Type
REMARK                         _______ _______ _______ _____ _____    ______ ____
ROOT
ATOM      1  O   HOH     1       3.041  22.600  -0.960  0.00  0.00    +0.000 OA
ENDROOT
TORSDOF 0
