REMARK  Name = ../refined-set-2016/2w7y/2w7y_pocket.pdb
REMARK  225 active torsions:
REMARK  status: ('A' for Active; 'I' for Inactive)
REMARK    1  A    between atoms: _1  and  _3
REMARK    2  A    between atoms: _3  and  _4
REMARK    3  A    between atoms: _3  and  _6
REMARK    4  A    between atoms: _6  and  _7
REMARK    5  A    between atoms: _12  and  _13
REMARK    6  A    between atoms: _15  and  _17
REMARK    7  A    between atoms: _17  and  _18
REMARK    8  A    between atoms: _17  and  _20
REMARK    9  A    between atoms: _20  and  _21
REMARK   10  A    between atoms: _26  and  _28
REMARK   11  A    between atoms: _28  and  _29
REMARK   12  A    between atoms: _31  and  _33
REMARK   13  A    between atoms: _33  and  _34
REMARK   14  A    between atoms: _33  and  _36
REMARK   15  A    between atoms: _36  and  _37
REMARK   16  A    between atoms: _42  and  _43
REMARK   17  A    between atoms: _45  and  _47
REMARK   18  A    between atoms: _47  and  _48
REMARK   19  A    between atoms: _47  and  _50
REMARK   20  A    between atoms: _50  and  _51
REMARK   21  A    between atoms: _56  and  _58
REMARK   22  A    between atoms: _58  and  _59
REMARK   23  A    between atoms: _58  and  _61
REMARK   24  A    between atoms: _61  and  _62
REMARK   25  A    between atoms: _67  and  _69
REMARK   26  A    between atoms: _69  and  _70
REMARK   27  A    between atoms: _69  and  _72
REMARK   28  A    between atoms: _72  and  _73
REMARK   29  A    between atoms: _83  and  _85
REMARK   30  A    between atoms: _85  and  _86
REMARK   31  A    between atoms: _85  and  _88
REMARK   32  A    between atoms: _91  and  _93
REMARK   33  A    between atoms: _93  and  _94
REMARK   34  A    between atoms: _97  and  _99
REMARK   35  A    between atoms: _99  and  _100
REMARK   36  A    between atoms: _99  and  _102
REMARK   37  A    between atoms: _102  and  _103
REMARK   38  A    between atoms: _103  and  _104
REMARK   39  A    between atoms: _106  and  _108
REMARK   40  A    between atoms: _108  and  _109
REMARK   41  A    between atoms: _108  and  _111
REMARK   42  A    between atoms: _111  and  _112
REMARK   43  A    between atoms: _117  and  _118
REMARK   44  A    between atoms: _120  and  _122
REMARK   45  A    between atoms: _122  and  _123
REMARK   46  A    between atoms: _122  and  _125
REMARK   47  A    between atoms: _128  and  _130
REMARK   48  A    between atoms: _130  and  _131
REMARK   49  A    between atoms: _130  and  _133
REMARK   50  A    between atoms: _133  and  _134
REMARK   51  A    between atoms: _139  and  _141
REMARK   52  A    between atoms: _141  and  _142
REMARK   53  A    between atoms: _144  and  _146
REMARK   54  A    between atoms: _146  and  _147
REMARK   55  A    between atoms: _146  and  _149
REMARK   56  A    between atoms: _149  and  _150
REMARK   57  A    between atoms: _153  and  _155
REMARK   58  A    between atoms: _155  and  _156
REMARK   59  A    between atoms: _155  and  _158
REMARK   60  A    between atoms: _158  and  _159
REMARK   61  A    between atoms: _159  and  _160
REMARK   62  A    between atoms: _160  and  _161
REMARK   63  A    between atoms: _161  and  _162
REMARK   64  A    between atoms: _166  and  _168
REMARK   65  A    between atoms: _168  and  _169
REMARK   66  A    between atoms: _168  and  _171
REMARK   67  A    between atoms: _171  and  _172
REMARK   68  A    between atoms: _175  and  _177
REMARK   69  A    between atoms: _177  and  _178
REMARK   70  A    between atoms: _177  and  _180
REMARK   71  A    between atoms: _180  and  _181
REMARK   72  A    between atoms: _184  and  _186
REMARK   73  A    between atoms: _186  and  _187
REMARK   74  A    between atoms: _190  and  _192
REMARK   75  A    between atoms: _192  and  _193
REMARK   76  A    between atoms: _195  and  _197
REMARK   77  A    between atoms: _197  and  _198
REMARK   78  A    between atoms: _197  and  _200
REMARK   79  A    between atoms: _200  and  _201
REMARK   80  A    between atoms: _206  and  _208
REMARK   81  A    between atoms: _208  and  _209
REMARK   82  A    between atoms: _212  and  _214
REMARK   83  A    between atoms: _214  and  _215
REMARK   84  A    between atoms: _214  and  _217
REMARK   85  A    between atoms: _217  and  _218
REMARK   86  A    between atoms: _223  and  _225
REMARK   87  A    between atoms: _225  and  _226
REMARK   88  A    between atoms: _225  and  _228
REMARK   89  A    between atoms: _228  and  _229
REMARK   90  A    between atoms: _229  and  _230
REMARK   91  A    between atoms: _233  and  _235
REMARK   92  A    between atoms: _235  and  _236
REMARK   93  A    between atoms: _235  and  _238
REMARK   94  A    between atoms: _238  and  _239
REMARK   95  A    between atoms: _239  and  _240
REMARK   96  A    between atoms: _245  and  _247
REMARK   97  A    between atoms: _247  and  _248
REMARK   98  A    between atoms: _247  and  _250
REMARK   99  A    between atoms: _250  and  _251
REMARK  100  A    between atoms: _254  and  _256
REMARK  101  A    between atoms: _256  and  _257
REMARK  102  A    between atoms: _256  and  _259
REMARK  103  A    between atoms: _259  and  _260
REMARK  104  A    between atoms: _266  and  _268
REMARK  105  A    between atoms: _268  and  _269
REMARK  106  A    between atoms: _268  and  _271
REMARK  107  A    between atoms: _271  and  _272
REMARK  108  A    between atoms: _275  and  _277
REMARK  109  A    between atoms: _277  and  _278
REMARK  110  A    between atoms: _277  and  _280
REMARK  111  A    between atoms: _280  and  _281
REMARK  112  A    between atoms: _281  and  _282
REMARK  113  A    between atoms: _284  and  _286
REMARK  114  A    between atoms: _286  and  _287
REMARK  115  A    between atoms: _286  and  _289
REMARK  116  A    between atoms: _289  and  _290
REMARK  117  A    between atoms: _300  and  _302
REMARK  118  A    between atoms: _302  and  _303
REMARK  119  A    between atoms: _302  and  _305
REMARK  120  A    between atoms: _305  and  _306
REMARK  121  A    between atoms: _306  and  _307
REMARK  122  A    between atoms: _311  and  _312
REMARK  123  A    between atoms: _317  and  _319
REMARK  124  A    between atoms: _319  and  _320
REMARK  125  A    between atoms: _319  and  _322
REMARK  126  A    between atoms: _322  and  _323
REMARK  127  A    between atoms: _326  and  _328
REMARK  128  A    between atoms: _328  and  _329
REMARK  129  A    between atoms: _328  and  _331
REMARK  130  A    between atoms: _331  and  _332
REMARK  131  A    between atoms: _332  and  _333
REMARK  132  A    between atoms: _333  and  _334
REMARK  133  A    between atoms: _343  and  _345
REMARK  134  A    between atoms: _345  and  _346
REMARK  135  A    between atoms: _345  and  _348
REMARK  136  A    between atoms: _348  and  _349
REMARK  137  A    between atoms: _352  and  _354
REMARK  138  A    between atoms: _354  and  _355
REMARK  139  A    between atoms: _358  and  _360
REMARK  140  A    between atoms: _360  and  _361
REMARK  141  A    between atoms: _360  and  _363
REMARK  142  A    between atoms: _363  and  _364
REMARK  143  A    between atoms: _369  and  _371
REMARK  144  A    between atoms: _371  and  _372
REMARK  145  A    between atoms: _375  and  _377
REMARK  146  A    between atoms: _377  and  _378
REMARK  147  A    between atoms: _377  and  _380
REMARK  148  A    between atoms: _380  and  _381
REMARK  149  A    between atoms: _386  and  _387
REMARK  150  A    between atoms: _389  and  _391
REMARK  151  A    between atoms: _391  and  _392
REMARK  152  A    between atoms: _391  and  _394
REMARK  153  A    between atoms: _394  and  _395
REMARK  154  A    between atoms: _397  and  _399
REMARK  155  A    between atoms: _399  and  _400
REMARK  156  A    between atoms: _399  and  _402
REMARK  157  A    between atoms: _402  and  _403
REMARK  158  A    between atoms: _409  and  _411
REMARK  159  A    between atoms: _411  and  _412
REMARK  160  A    between atoms: _411  and  _414
REMARK  161  A    between atoms: _414  and  _415
REMARK  162  A    between atoms: _421  and  _423
REMARK  163  A    between atoms: _423  and  _424
REMARK  164  A    between atoms: _423  and  _426
REMARK  165  A    between atoms: _426  and  _427
REMARK  166  A    between atoms: _432  and  _434
REMARK  167  A    between atoms: _434  and  _435
REMARK  168  A    between atoms: _437  and  _439
REMARK  169  A    between atoms: _439  and  _440
REMARK  170  A    between atoms: _439  and  _442
REMARK  171  A    between atoms: _445  and  _447
REMARK  172  A    between atoms: _447  and  _448
REMARK  173  A    between atoms: _447  and  _450
REMARK  174  A    between atoms: _450  and  _451
REMARK  175  A    between atoms: _461  and  _463
REMARK  176  A    between atoms: _463  and  _464
REMARK  177  A    between atoms: _467  and  _469
REMARK  178  A    between atoms: _469  and  _470
REMARK  179  A    between atoms: _469  and  _472
REMARK  180  A    between atoms: _472  and  _473
REMARK  181  A    between atoms: _473  and  _474
REMARK  182  A    between atoms: _477  and  _479
REMARK  183  A    between atoms: _479  and  _480
REMARK  184  A    between atoms: _479  and  _482
REMARK  185  A    between atoms: _482  and  _483
REMARK  186  A    between atoms: _485  and  _487
REMARK  187  A    between atoms: _487  and  _488
REMARK  188  A    between atoms: _490  and  _492
REMARK  189  A    between atoms: _492  and  _493
REMARK  190  A    between atoms: _495  and  _497
REMARK  191  A    between atoms: _497  and  _498
REMARK  192  A    between atoms: _497  and  _500
REMARK  193  A    between atoms: _500  and  _501
REMARK  194  A    between atoms: _504  and  _506
REMARK  195  A    between atoms: _506  and  _507
REMARK  196  A    between atoms: _506  and  _509
REMARK  197  A    between atoms: _512  and  _514
REMARK  198  A    between atoms: _514  and  _515
REMARK  199  A    between atoms: _517  and  _519
REMARK  200  A    between atoms: _519  and  _520
REMARK  201  A    between atoms: _523  and  _525
REMARK  202  A    between atoms: _525  and  _526
REMARK  203  A    between atoms: _525  and  _528
REMARK  204  A    between atoms: _528  and  _529
REMARK  205  A    between atoms: _535  and  _536
REMARK  206  A    between atoms: _541  and  _543
REMARK  207  A    between atoms: _543  and  _544
REMARK  208  A    between atoms: _543  and  _546
REMARK  209  A    between atoms: _546  and  _547
REMARK  210  A    between atoms: _550  and  _552
REMARK  211  A    between atoms: _552  and  _553
REMARK  212  A    between atoms: _552  and  _555
REMARK  213  A    between atoms: _555  and  _556
REMARK  214  A    between atoms: _558  and  _560
REMARK  215  A    between atoms: _560  and  _561
REMARK  216  A    between atoms: _560  and  _563
REMARK  217  A    between atoms: _563  and  _564
REMARK  218  A    between atoms: _567  and  _569
REMARK  219  A    between atoms: _569  and  _570
REMARK  220  A    between atoms: _569  and  _572
REMARK  221  A    between atoms: _572  and  _573
REMARK  222  A    between atoms: _578  and  _580
REMARK  223  A    between atoms: _580  and  _581
REMARK  224  A    between atoms: _580  and  _583
REMARK  225  A    between atoms: _583  and  _584
REMARK                            x       y       z     vdW  Elec       q    Type
REMARK                         _______ _______ _______ _____ _____    ______ ____
ROOT
ATOM      1  CA  TYR A   4      23.197   9.493  54.593  0.00  0.00    +0.153 C 
ENDROOT
BRANCH   1   2
ATOM      2  C   TYR A   4      24.501  10.291  54.671  0.00  0.00    +0.241 C 
ATOM      3  O   TYR A   4      24.714  11.088  55.585  0.00  0.00    -0.273 OA
ATOM      4  N   HIS A   5      25.368  10.047  53.688  0.00  0.00    -0.297 N 
ATOM      5  H   HIS A   5      25.068   9.413  52.920  0.00  0.00    +0.150 HD
BRANCH   4   6
ATOM      6  CA  HIS A   5      26.720  10.618  53.621  0.00  0.00    +0.155 C 
BRANCH   6   7
ATOM      7  C   HIS A   5      26.797  11.796  52.653  0.00  0.00    +0.241 C 
ATOM      8  O   HIS A   5      27.783  12.527  52.627  0.00  0.00    -0.273 OA
ATOM      9  N   HIS A   6      25.742  11.957  51.861  0.00  0.00    -0.298 N 
ATOM     10  H   HIS A   6      24.892  11.391  52.057  0.00  0.00    +0.150 HD
BRANCH   9  11
ATOM     11  CA  HIS A   6      25.707  12.881  50.733  0.00  0.00    +0.143 C 
BRANCH  11  12
ATOM     12  C   HIS A   6      25.861  14.339  51.146  0.00  0.00    +0.227 C 
ATOM     13  O   HIS A   6      25.291  14.776  52.151  0.00  0.00    -0.286 OA
ENDBRANCH  11  12
BRANCH  11  14
ATOM     14  CB  HIS A   6      24.391  12.709  49.959  0.00  0.00    +0.075 C 
BRANCH  14  15
ATOM     15  CG  HIS A   6      24.036  11.280  49.681  0.00  0.00    +0.082 A 
ATOM     16  CD2 HIS A   6      23.603  10.294  50.502  0.00  0.00    +0.115 A 
ATOM     17  NE2 HIS A   6      23.442   9.168  49.733  0.00  0.00    -0.221 NA
ATOM     18  CE1 HIS A   6      23.764   9.452  48.484  0.00  0.00    +0.199 A 
ATOM     19  ND1 HIS A   6      24.130  10.719  48.425  0.00  0.00    -0.227 NA
ENDBRANCH  14  15
ENDBRANCH  11  14
ENDBRANCH   9  11
ENDBRANCH   6   7
BRANCH   6  20
ATOM     20  CB  HIS A   5      27.703   9.538  53.164  0.00  0.00    +0.076 C 
BRANCH  20  21
ATOM     21  CG  HIS A   5      27.340   8.911  51.852  0.00  0.00    +0.082 A 
ATOM     22  CD2 HIS A   5      26.682   7.763  51.563  0.00  0.00    +0.115 A 
ATOM     23  NE2 HIS A   5      26.619   7.665  50.193  0.00  0.00    -0.221 NA
ATOM     24  CE1 HIS A   5      27.215   8.716  49.660  0.00  0.00    +0.199 A 
ATOM     25  ND1 HIS A   5      27.660   9.484  50.639  0.00  0.00    -0.227 NA
ENDBRANCH  20  21
ENDBRANCH   6  20
ENDBRANCH   4   6
ENDBRANCH   1   2
BRANCH   1  27
ATOM     26  C   GLY A   3      23.729   7.155  54.166  0.00  0.00    +0.243 C 
ATOM     27  N   TYR A   4      23.415   8.116  55.028  0.00  0.00    -0.297 N 
ATOM     28  H   TYR A   4      23.322   7.882  56.037  0.00  0.00    +0.150 HD
ATOM     29  O   GLY A   3      23.828   7.359  52.956  0.00  0.00    -0.273 OA
BRANCH  26  30
ATOM     30  CA  GLY A   3      23.978   5.767  54.741  0.00  0.00    +0.176 C 
BRANCH  30  33
ATOM     31  C   HIS A   2      24.277   5.520  57.153  0.00  0.00    +0.241 C 
ATOM     32  O   HIS A   2      25.489   5.714  57.068  0.00  0.00    -0.273 OA
ATOM     33  N   GLY A   3      23.470   5.535  56.093  0.00  0.00    -0.295 N 
ATOM     34  H   GLY A   3      22.451   5.377  56.231  0.00  0.00    +0.150 HD
BRANCH  31  35
ATOM     35  CA  HIS A   2      23.631   5.248  58.519  0.00  0.00    +0.155 C 
BRANCH  35  38
ATOM     36  C   TYR A   1      24.486   4.022  60.489  0.00  0.00    +0.239 C 
ATOM     37  O   TYR A   1      23.440   3.393  60.658  0.00  0.00    -0.274 OA
ATOM     38  N   HIS A   2      24.651   4.935  59.532  0.00  0.00    -0.297 N 
ATOM     39  H   HIS A   2      25.551   5.455  59.500  0.00  0.00    +0.150 HD
BRANCH  36  40
ATOM     40  CA  TYR A   1      25.693   3.790  61.401  0.00  0.00    +0.149 C 
BRANCH  40  41
ATOM     41  N   TYR A   1      25.333   3.840  62.816  0.00  0.00    -0.238 NA
ATOM     42  H   TYR A   1      24.976   2.978  63.276  0.00  0.00    +0.142 HD
ENDBRANCH  40  41
BRANCH  40  43
ATOM     43  CB  TYR A   1      26.404   2.467  61.065  0.00  0.00    +0.053 C 
BRANCH  43  44
ATOM     44  CG  TYR A   1      27.694   2.280  61.833  0.00  0.00    -0.020 A 
ATOM     45  CD2 TYR A   1      27.712   1.580  63.040  0.00  0.00    -0.001 A 
ATOM     46  CE2 TYR A   1      28.887   1.423  63.761  0.00  0.00    +0.036 A 
ATOM     47  CZ  TYR A   1      30.066   1.976  63.281  0.00  0.00    +0.134 A 
ATOM     48  CE1 TYR A   1      30.074   2.681  62.086  0.00  0.00    +0.036 A 
ATOM     49  CD1 TYR A   1      28.890   2.831  61.369  0.00  0.00    -0.001 A 
BRANCH  47  50
ATOM     50  OH  TYR A   1      31.236   1.818  63.996  0.00  0.00    -0.506 OA
ATOM     51  HH  TYR A   1      31.052   1.294  64.816  0.00  0.00    +0.292 HD
ENDBRANCH  47  50
ENDBRANCH  43  44
ENDBRANCH  40  43
ENDBRANCH  36  40
ENDBRANCH  35  38
BRANCH  35  52
ATOM     52  CB  HIS A   2      22.786   6.444  58.961  0.00  0.00    +0.076 C 
BRANCH  52  53
ATOM     53  CG  HIS A   2      23.550   7.729  59.040  0.00  0.00    +0.082 A 
ATOM     54  ND1 HIS A   2      24.200   8.141  60.184  0.00  0.00    -0.227 NA
ATOM     55  CE1 HIS A   2      24.788   9.303  59.960  0.00  0.00    +0.199 A 
ATOM     56  NE2 HIS A   2      24.542   9.661  58.712  0.00  0.00    -0.221 NA
ATOM     57  CD2 HIS A   2      23.770   8.693  58.114  0.00  0.00    +0.115 A 
ENDBRANCH  52  53
ENDBRANCH  35  52
ENDBRANCH  31  35
ENDBRANCH  30  33
ENDBRANCH  26  30
ENDBRANCH   1  27
BRANCH   1  58
ATOM     58  CB  TYR A   4      22.069  10.144  55.398  0.00  0.00    +0.055 C 
BRANCH  58  59
ATOM     59  CG  TYR A   4      20.731   9.448  55.246  0.00  0.00    -0.020 A 
ATOM     60  CD2 TYR A   4      20.245   8.610  56.245  0.00  0.00    -0.001 A 
ATOM     61  CE2 TYR A   4      19.014   7.963  56.111  0.00  0.00    +0.036 A 
ATOM     62  CZ  TYR A   4      18.261   8.150  54.963  0.00  0.00    +0.134 A 
ATOM     63  CE1 TYR A   4      18.726   8.977  53.953  0.00  0.00    +0.036 A 
ATOM     64  CD1 TYR A   4      19.954   9.623  54.098  0.00  0.00    -0.001 A 
BRANCH  62  65
ATOM     65  OH  TYR A   4      17.046   7.510  54.815  0.00  0.00    -0.506 OA
ATOM     66  HH  TYR A   4      17.184   6.530  54.852  0.00  0.00    +0.292 HD
ENDBRANCH  62  65
ENDBRANCH  58  59
ENDBRANCH   1  58
TORSDOF 24
REMARK  Name = ../refined-set-2016/2w7y/2w7y_pocket.pdb
REMARK  225 active torsions:
REMARK  status: ('A' for Active; 'I' for Inactive)
REMARK    1  A    between atoms: _1  and  _3
REMARK    2  A    between atoms: _3  and  _4
REMARK    3  A    between atoms: _3  and  _6
REMARK    4  A    between atoms: _6  and  _7
REMARK    5  A    between atoms: _12  and  _13
REMARK    6  A    between atoms: _15  and  _17
REMARK    7  A    between atoms: _17  and  _18
REMARK    8  A    between atoms: _17  and  _20
REMARK    9  A    between atoms: _20  and  _21
REMARK   10  A    between atoms: _26  and  _28
REMARK   11  A    between atoms: _28  and  _29
REMARK   12  A    between atoms: _31  and  _33
REMARK   13  A    between atoms: _33  and  _34
REMARK   14  A    between atoms: _33  and  _36
REMARK   15  A    between atoms: _36  and  _37
REMARK   16  A    between atoms: _42  and  _43
REMARK   17  A    between atoms: _45  and  _47
REMARK   18  A    between atoms: _47  and  _48
REMARK   19  A    between atoms: _47  and  _50
REMARK   20  A    between atoms: _50  and  _51
REMARK   21  A    between atoms: _56  and  _58
REMARK   22  A    between atoms: _58  and  _59
REMARK   23  A    between atoms: _58  and  _61
REMARK   24  A    between atoms: _61  and  _62
REMARK   25  A    between atoms: _67  and  _69
REMARK   26  A    between atoms: _69  and  _70
REMARK   27  A    between atoms: _69  and  _72
REMARK   28  A    between atoms: _72  and  _73
REMARK   29  A    between atoms: _83  and  _85
REMARK   30  A    between atoms: _85  and  _86
REMARK   31  A    between atoms: _85  and  _88
REMARK   32  A    between atoms: _91  and  _93
REMARK   33  A    between atoms: _93  and  _94
REMARK   34  A    between atoms: _97  and  _99
REMARK   35  A    between atoms: _99  and  _100
REMARK   36  A    between atoms: _99  and  _102
REMARK   37  A    between atoms: _102  and  _103
REMARK   38  A    between atoms: _103  and  _104
REMARK   39  A    between atoms: _106  and  _108
REMARK   40  A    between atoms: _108  and  _109
REMARK   41  A    between atoms: _108  and  _111
REMARK   42  A    between atoms: _111  and  _112
REMARK   43  A    between atoms: _117  and  _118
REMARK   44  A    between atoms: _120  and  _122
REMARK   45  A    between atoms: _122  and  _123
REMARK   46  A    between atoms: _122  and  _125
REMARK   47  A    between atoms: _128  and  _130
REMARK   48  A    between atoms: _130  and  _131
REMARK   49  A    between atoms: _130  and  _133
REMARK   50  A    between atoms: _133  and  _134
REMARK   51  A    between atoms: _139  and  _141
REMARK   52  A    between atoms: _141  and  _142
REMARK   53  A    between atoms: _144  and  _146
REMARK   54  A    between atoms: _146  and  _147
REMARK   55  A    between atoms: _146  and  _149
REMARK   56  A    between atoms: _149  and  _150
REMARK   57  A    between atoms: _153  and  _155
REMARK   58  A    between atoms: _155  and  _156
REMARK   59  A    between atoms: _155  and  _158
REMARK   60  A    between atoms: _158  and  _159
REMARK   61  A    between atoms: _159  and  _160
REMARK   62  A    between atoms: _160  and  _161
REMARK   63  A    between atoms: _161  and  _162
REMARK   64  A    between atoms: _166  and  _168
REMARK   65  A    between atoms: _168  and  _169
REMARK   66  A    between atoms: _168  and  _171
REMARK   67  A    between atoms: _171  and  _172
REMARK   68  A    between atoms: _175  and  _177
REMARK   69  A    between atoms: _177  and  _178
REMARK   70  A    between atoms: _177  and  _180
REMARK   71  A    between atoms: _180  and  _181
REMARK   72  A    between atoms: _184  and  _186
REMARK   73  A    between atoms: _186  and  _187
REMARK   74  A    between atoms: _190  and  _192
REMARK   75  A    between atoms: _192  and  _193
REMARK   76  A    between atoms: _195  and  _197
REMARK   77  A    between atoms: _197  and  _198
REMARK   78  A    between atoms: _197  and  _200
REMARK   79  A    between atoms: _200  and  _201
REMARK   80  A    between atoms: _206  and  _208
REMARK   81  A    between atoms: _208  and  _209
REMARK   82  A    between atoms: _212  and  _214
REMARK   83  A    between atoms: _214  and  _215
REMARK   84  A    between atoms: _214  and  _217
REMARK   85  A    between atoms: _217  and  _218
REMARK   86  A    between atoms: _223  and  _225
REMARK   87  A    between atoms: _225  and  _226
REMARK   88  A    between atoms: _225  and  _228
REMARK   89  A    between atoms: _228  and  _229
REMARK   90  A    between atoms: _229  and  _230
REMARK   91  A    between atoms: _233  and  _235
REMARK   92  A    between atoms: _235  and  _236
REMARK   93  A    between atoms: _235  and  _238
REMARK   94  A    between atoms: _238  and  _239
REMARK   95  A    between atoms: _239  and  _240
REMARK   96  A    between atoms: _245  and  _247
REMARK   97  A    between atoms: _247  and  _248
REMARK   98  A    between atoms: _247  and  _250
REMARK   99  A    between atoms: _250  and  _251
REMARK  100  A    between atoms: _254  and  _256
REMARK  101  A    between atoms: _256  and  _257
REMARK  102  A    between atoms: _256  and  _259
REMARK  103  A    between atoms: _259  and  _260
REMARK  104  A    between atoms: _266  and  _268
REMARK  105  A    between atoms: _268  and  _269
REMARK  106  A    between atoms: _268  and  _271
REMARK  107  A    between atoms: _271  and  _272
REMARK  108  A    between atoms: _275  and  _277
REMARK  109  A    between atoms: _277  and  _278
REMARK  110  A    between atoms: _277  and  _280
REMARK  111  A    between atoms: _280  and  _281
REMARK  112  A    between atoms: _281  and  _282
REMARK  113  A    between atoms: _284  and  _286
REMARK  114  A    between atoms: _286  and  _287
REMARK  115  A    between atoms: _286  and  _289
REMARK  116  A    between atoms: _289  and  _290
REMARK  117  A    between atoms: _300  and  _302
REMARK  118  A    between atoms: _302  and  _303
REMARK  119  A    between atoms: _302  and  _305
REMARK  120  A    between atoms: _305  and  _306
REMARK  121  A    between atoms: _306  and  _307
REMARK  122  A    between atoms: _311  and  _312
REMARK  123  A    between atoms: _317  and  _319
REMARK  124  A    between atoms: _319  and  _320
REMARK  125  A    between atoms: _319  and  _322
REMARK  126  A    between atoms: _322  and  _323
REMARK  127  A    between atoms: _326  and  _328
REMARK  128  A    between atoms: _328  and  _329
REMARK  129  A    between atoms: _328  and  _331
REMARK  130  A    between atoms: _331  and  _332
REMARK  131  A    between atoms: _332  and  _333
REMARK  132  A    between atoms: _333  and  _334
REMARK  133  A    between atoms: _343  and  _345
REMARK  134  A    between atoms: _345  and  _346
REMARK  135  A    between atoms: _345  and  _348
REMARK  136  A    between atoms: _348  and  _349
REMARK  137  A    between atoms: _352  and  _354
REMARK  138  A    between atoms: _354  and  _355
REMARK  139  A    between atoms: _358  and  _360
REMARK  140  A    between atoms: _360  and  _361
REMARK  141  A    between atoms: _360  and  _363
REMARK  142  A    between atoms: _363  and  _364
REMARK  143  A    between atoms: _369  and  _371
REMARK  144  A    between atoms: _371  and  _372
REMARK  145  A    between atoms: _375  and  _377
REMARK  146  A    between atoms: _377  and  _378
REMARK  147  A    between atoms: _377  and  _380
REMARK  148  A    between atoms: _380  and  _381
REMARK  149  A    between atoms: _386  and  _387
REMARK  150  A    between atoms: _389  and  _391
REMARK  151  A    between atoms: _391  and  _392
REMARK  152  A    between atoms: _391  and  _394
REMARK  153  A    between atoms: _394  and  _395
REMARK  154  A    between atoms: _397  and  _399
REMARK  155  A    between atoms: _399  and  _400
REMARK  156  A    between atoms: _399  and  _402
REMARK  157  A    between atoms: _402  and  _403
REMARK  158  A    between atoms: _409  and  _411
REMARK  159  A    between atoms: _411  and  _412
REMARK  160  A    between atoms: _411  and  _414
REMARK  161  A    between atoms: _414  and  _415
REMARK  162  A    between atoms: _421  and  _423
REMARK  163  A    between atoms: _423  and  _424
REMARK  164  A    between atoms: _423  and  _426
REMARK  165  A    between atoms: _426  and  _427
REMARK  166  A    between atoms: _432  and  _434
REMARK  167  A    between atoms: _434  and  _435
REMARK  168  A    between atoms: _437  and  _439
REMARK  169  A    between atoms: _439  and  _440
REMARK  170  A    between atoms: _439  and  _442
REMARK  171  A    between atoms: _445  and  _447
REMARK  172  A    between atoms: _447  and  _448
REMARK  173  A    between atoms: _447  and  _450
REMARK  174  A    between atoms: _450  and  _451
REMARK  175  A    between atoms: _461  and  _463
REMARK  176  A    between atoms: _463  and  _464
REMARK  177  A    between atoms: _467  and  _469
REMARK  178  A    between atoms: _469  and  _470
REMARK  179  A    between atoms: _469  and  _472
REMARK  180  A    between atoms: _472  and  _473
REMARK  181  A    between atoms: _473  and  _474
REMARK  182  A    between atoms: _477  and  _479
REMARK  183  A    between atoms: _479  and  _480
REMARK  184  A    between atoms: _479  and  _482
REMARK  185  A    between atoms: _482  and  _483
REMARK  186  A    between atoms: _485  and  _487
REMARK  187  A    between atoms: _487  and  _488
REMARK  188  A    between atoms: _490  and  _492
REMARK  189  A    between atoms: _492  and  _493
REMARK  190  A    between atoms: _495  and  _497
REMARK  191  A    between atoms: _497  and  _498
REMARK  192  A    between atoms: _497  and  _500
REMARK  193  A    between atoms: _500  and  _501
REMARK  194  A    between atoms: _504  and  _506
REMARK  195  A    between atoms: _506  and  _507
REMARK  196  A    between atoms: _506  and  _509
REMARK  197  A    between atoms: _512  and  _514
REMARK  198  A    between atoms: _514  and  _515
REMARK  199  A    between atoms: _517  and  _519
REMARK  200  A    between atoms: _519  and  _520
REMARK  201  A    between atoms: _523  and  _525
REMARK  202  A    between atoms: _525  and  _526
REMARK  203  A    between atoms: _525  and  _528
REMARK  204  A    between atoms: _528  and  _529
REMARK  205  A    between atoms: _535  and  _536
REMARK  206  A    between atoms: _541  and  _543
REMARK  207  A    between atoms: _543  and  _544
REMARK  208  A    between atoms: _543  and  _546
REMARK  209  A    between atoms: _546  and  _547
REMARK  210  A    between atoms: _550  and  _552
REMARK  211  A    between atoms: _552  and  _553
REMARK  212  A    between atoms: _552  and  _555
REMARK  213  A    between atoms: _555  and  _556
REMARK  214  A    between atoms: _558  and  _560
REMARK  215  A    between atoms: _560  and  _561
REMARK  216  A    between atoms: _560  and  _563
REMARK  217  A    between atoms: _563  and  _564
REMARK  218  A    between atoms: _567  and  _569
REMARK  219  A    between atoms: _569  and  _570
REMARK  220  A    between atoms: _569  and  _572
REMARK  221  A    between atoms: _572  and  _573
REMARK  222  A    between atoms: _578  and  _580
REMARK  223  A    between atoms: _580  and  _581
REMARK  224  A    between atoms: _580  and  _583
REMARK  225  A    between atoms: _583  and  _584
REMARK                            x       y       z     vdW  Elec       q    Type
REMARK                         _______ _______ _______ _____ _____    ______ ____
ROOT
ATOM      1  CG  TRP A   1      19.882  12.804  48.271  0.00  0.00    -0.002 A 
ATOM      2  CD2 TRP A   1      19.516  11.652  49.045  0.00  0.00    +0.013 A 
ATOM      3  CE3 TRP A   1      20.214  10.802  49.913  0.00  0.00    +0.001 A 
ATOM      4  CZ3 TRP A   1      19.523   9.754  50.525  0.00  0.00    +0.000 A 
ATOM      5  CH2 TRP A   1      18.151   9.548  50.281  0.00  0.00    +0.001 A 
ATOM      6  CZ2 TRP A   1      17.445  10.367  49.439  0.00  0.00    +0.017 A 
ATOM      7  CE2 TRP A   1      18.140  11.418  48.823  0.00  0.00    +0.056 A 
ATOM      8  NE1 TRP A   1      17.696  12.378  47.951  0.00  0.00    -0.352 N 
ATOM      9  HE1 TRP A   1      16.722  12.469  47.597  0.00  0.00    +0.166 HD
ATOM     10  CD1 TRP A   1      18.746  13.200  47.620  0.00  0.00    +0.068 A 
ENDROOT
BRANCH   1  11
ATOM     11  CB  TRP A   1      21.255  13.429  48.166  0.00  0.00    +0.053 C 
BRANCH  11  12
ATOM     12  CA  TRP A   1      21.252  14.958  47.981  0.00  0.00    +0.137 C 
BRANCH  12  13
ATOM     13  N   TRP A   1      22.532  15.429  47.439  0.00  0.00    -0.239 NA
ATOM     14  H   TRP A   1      23.233  15.829  48.095  0.00  0.00    +0.142 HD
ENDBRANCH  12  13
BRANCH  12  15
ATOM     15  C   TRP A   1      20.922  15.669  49.302  0.00  0.00    +0.224 C 
ATOM     16  O   TRP A   1      21.403  15.260  50.362  0.00  0.00    -0.287 OA
ENDBRANCH  12  15
ENDBRANCH  11  12
ENDBRANCH   1  11
TORSDOF 4
REMARK  Name = ../refined-set-2016/2w7y/2w7y_pocket.pdb
REMARK  225 active torsions:
REMARK  status: ('A' for Active; 'I' for Inactive)
REMARK    1  A    between atoms: _1  and  _3
REMARK    2  A    between atoms: _3  and  _4
REMARK    3  A    between atoms: _3  and  _6
REMARK    4  A    between atoms: _6  and  _7
REMARK    5  A    between atoms: _12  and  _13
REMARK    6  A    between atoms: _15  and  _17
REMARK    7  A    between atoms: _17  and  _18
REMARK    8  A    between atoms: _17  and  _20
REMARK    9  A    between atoms: _20  and  _21
REMARK   10  A    between atoms: _26  and  _28
REMARK   11  A    between atoms: _28  and  _29
REMARK   12  A    between atoms: _31  and  _33
REMARK   13  A    between atoms: _33  and  _34
REMARK   14  A    between atoms: _33  and  _36
REMARK   15  A    between atoms: _36  and  _37
REMARK   16  A    between atoms: _42  and  _43
REMARK   17  A    between atoms: _45  and  _47
REMARK   18  A    between atoms: _47  and  _48
REMARK   19  A    between atoms: _47  and  _50
REMARK   20  A    between atoms: _50  and  _51
REMARK   21  A    between atoms: _56  and  _58
REMARK   22  A    between atoms: _58  and  _59
REMARK   23  A    between atoms: _58  and  _61
REMARK   24  A    between atoms: _61  and  _62
REMARK   25  A    between atoms: _67  and  _69
REMARK   26  A    between atoms: _69  and  _70
REMARK   27  A    between atoms: _69  and  _72
REMARK   28  A    between atoms: _72  and  _73
REMARK   29  A    between atoms: _83  and  _85
REMARK   30  A    between atoms: _85  and  _86
REMARK   31  A    between atoms: _85  and  _88
REMARK   32  A    between atoms: _91  and  _93
REMARK   33  A    between atoms: _93  and  _94
REMARK   34  A    between atoms: _97  and  _99
REMARK   35  A    between atoms: _99  and  _100
REMARK   36  A    between atoms: _99  and  _102
REMARK   37  A    between atoms: _102  and  _103
REMARK   38  A    between atoms: _103  and  _104
REMARK   39  A    between atoms: _106  and  _108
REMARK   40  A    between atoms: _108  and  _109
REMARK   41  A    between atoms: _108  and  _111
REMARK   42  A    between atoms: _111  and  _112
REMARK   43  A    between atoms: _117  and  _118
REMARK   44  A    between atoms: _120  and  _122
REMARK   45  A    between atoms: _122  and  _123
REMARK   46  A    between atoms: _122  and  _125
REMARK   47  A    between atoms: _128  and  _130
REMARK   48  A    between atoms: _130  and  _131
REMARK   49  A    between atoms: _130  and  _133
REMARK   50  A    between atoms: _133  and  _134
REMARK   51  A    between atoms: _139  and  _141
REMARK   52  A    between atoms: _141  and  _142
REMARK   53  A    between atoms: _144  and  _146
REMARK   54  A    between atoms: _146  and  _147
REMARK   55  A    between atoms: _146  and  _149
REMARK   56  A    between atoms: _149  and  _150
REMARK   57  A    between atoms: _153  and  _155
REMARK   58  A    between atoms: _155  and  _156
REMARK   59  A    between atoms: _155  and  _158
REMARK   60  A    between atoms: _158  and  _159
REMARK   61  A    between atoms: _159  and  _160
REMARK   62  A    between atoms: _160  and  _161
REMARK   63  A    between atoms: _161  and  _162
REMARK   64  A    between atoms: _166  and  _168
REMARK   65  A    between atoms: _168  and  _169
REMARK   66  A    between atoms: _168  and  _171
REMARK   67  A    between atoms: _171  and  _172
REMARK   68  A    between atoms: _175  and  _177
REMARK   69  A    between atoms: _177  and  _178
REMARK   70  A    between atoms: _177  and  _180
REMARK   71  A    between atoms: _180  and  _181
REMARK   72  A    between atoms: _184  and  _186
REMARK   73  A    between atoms: _186  and  _187
REMARK   74  A    between atoms: _190  and  _192
REMARK   75  A    between atoms: _192  and  _193
REMARK   76  A    between atoms: _195  and  _197
REMARK   77  A    between atoms: _197  and  _198
REMARK   78  A    between atoms: _197  and  _200
REMARK   79  A    between atoms: _200  and  _201
REMARK   80  A    between atoms: _206  and  _208
REMARK   81  A    between atoms: _208  and  _209
REMARK   82  A    between atoms: _212  and  _214
REMARK   83  A    between atoms: _214  and  _215
REMARK   84  A    between atoms: _214  and  _217
REMARK   85  A    between atoms: _217  and  _218
REMARK   86  A    between atoms: _223  and  _225
REMARK   87  A    between atoms: _225  and  _226
REMARK   88  A    between atoms: _225  and  _228
REMARK   89  A    between atoms: _228  and  _229
REMARK   90  A    between atoms: _229  and  _230
REMARK   91  A    between atoms: _233  and  _235
REMARK   92  A    between atoms: _235  and  _236
REMARK   93  A    between atoms: _235  and  _238
REMARK   94  A    between atoms: _238  and  _239
REMARK   95  A    between atoms: _239  and  _240
REMARK   96  A    between atoms: _245  and  _247
REMARK   97  A    between atoms: _247  and  _248
REMARK   98  A    between atoms: _247  and  _250
REMARK   99  A    between atoms: _250  and  _251
REMARK  100  A    between atoms: _254  and  _256
REMARK  101  A    between atoms: _256  and  _257
REMARK  102  A    between atoms: _256  and  _259
REMARK  103  A    between atoms: _259  and  _260
REMARK  104  A    between atoms: _266  and  _268
REMARK  105  A    between atoms: _268  and  _269
REMARK  106  A    between atoms: _268  and  _271
REMARK  107  A    between atoms: _271  and  _272
REMARK  108  A    between atoms: _275  and  _277
REMARK  109  A    between atoms: _277  and  _278
REMARK  110  A    between atoms: _277  and  _280
REMARK  111  A    between atoms: _280  and  _281
REMARK  112  A    between atoms: _281  and  _282
REMARK  113  A    between atoms: _284  and  _286
REMARK  114  A    between atoms: _286  and  _287
REMARK  115  A    between atoms: _286  and  _289
REMARK  116  A    between atoms: _289  and  _290
REMARK  117  A    between atoms: _300  and  _302
REMARK  118  A    between atoms: _302  and  _303
REMARK  119  A    between atoms: _302  and  _305
REMARK  120  A    between atoms: _305  and  _306
REMARK  121  A    between atoms: _306  and  _307
REMARK  122  A    between atoms: _311  and  _312
REMARK  123  A    between atoms: _317  and  _319
REMARK  124  A    between atoms: _319  and  _320
REMARK  125  A    between atoms: _319  and  _322
REMARK  126  A    between atoms: _322  and  _323
REMARK  127  A    between atoms: _326  and  _328
REMARK  128  A    between atoms: _328  and  _329
REMARK  129  A    between atoms: _328  and  _331
REMARK  130  A    between atoms: _331  and  _332
REMARK  131  A    between atoms: _332  and  _333
REMARK  132  A    between atoms: _333  and  _334
REMARK  133  A    between atoms: _343  and  _345
REMARK  134  A    between atoms: _345  and  _346
REMARK  135  A    between atoms: _345  and  _348
REMARK  136  A    between atoms: _348  and  _349
REMARK  137  A    between atoms: _352  and  _354
REMARK  138  A    between atoms: _354  and  _355
REMARK  139  A    between atoms: _358  and  _360
REMARK  140  A    between atoms: _360  and  _361
REMARK  141  A    between atoms: _360  and  _363
REMARK  142  A    between atoms: _363  and  _364
REMARK  143  A    between atoms: _369  and  _371
REMARK  144  A    between atoms: _371  and  _372
REMARK  145  A    between atoms: _375  and  _377
REMARK  146  A    between atoms: _377  and  _378
REMARK  147  A    between atoms: _377  and  _380
REMARK  148  A    between atoms: _380  and  _381
REMARK  149  A    between atoms: _386  and  _387
REMARK  150  A    between atoms: _389  and  _391
REMARK  151  A    between atoms: _391  and  _392
REMARK  152  A    between atoms: _391  and  _394
REMARK  153  A    between atoms: _394  and  _395
REMARK  154  A    between atoms: _397  and  _399
REMARK  155  A    between atoms: _399  and  _400
REMARK  156  A    between atoms: _399  and  _402
REMARK  157  A    between atoms: _402  and  _403
REMARK  158  A    between atoms: _409  and  _411
REMARK  159  A    between atoms: _411  and  _412
REMARK  160  A    between atoms: _411  and  _414
REMARK  161  A    between atoms: _414  and  _415
REMARK  162  A    between atoms: _421  and  _423
REMARK  163  A    between atoms: _423  and  _424
REMARK  164  A    between atoms: _423  and  _426
REMARK  165  A    between atoms: _426  and  _427
REMARK  166  A    between atoms: _432  and  _434
REMARK  167  A    between atoms: _434  and  _435
REMARK  168  A    between atoms: _437  and  _439
REMARK  169  A    between atoms: _439  and  _440
REMARK  170  A    between atoms: _439  and  _442
REMARK  171  A    between atoms: _445  and  _447
REMARK  172  A    between atoms: _447  and  _448
REMARK  173  A    between atoms: _447  and  _450
REMARK  174  A    between atoms: _450  and  _451
REMARK  175  A    between atoms: _461  and  _463
REMARK  176  A    between atoms: _463  and  _464
REMARK  177  A    between atoms: _467  and  _469
REMARK  178  A    between atoms: _469  and  _470
REMARK  179  A    between atoms: _469  and  _472
REMARK  180  A    between atoms: _472  and  _473
REMARK  181  A    between atoms: _473  and  _474
REMARK  182  A    between atoms: _477  and  _479
REMARK  183  A    between atoms: _479  and  _480
REMARK  184  A    between atoms: _479  and  _482
REMARK  185  A    between atoms: _482  and  _483
REMARK  186  A    between atoms: _485  and  _487
REMARK  187  A    between atoms: _487  and  _488
REMARK  188  A    between atoms: _490  and  _492
REMARK  189  A    between atoms: _492  and  _493
REMARK  190  A    between atoms: _495  and  _497
REMARK  191  A    between atoms: _497  and  _498
REMARK  192  A    between atoms: _497  and  _500
REMARK  193  A    between atoms: _500  and  _501
REMARK  194  A    between atoms: _504  and  _506
REMARK  195  A    between atoms: _506  and  _507
REMARK  196  A    between atoms: _506  and  _509
REMARK  197  A    between atoms: _512  and  _514
REMARK  198  A    between atoms: _514  and  _515
REMARK  199  A    between atoms: _517  and  _519
REMARK  200  A    between atoms: _519  and  _520
REMARK  201  A    between atoms: _523  and  _525
REMARK  202  A    between atoms: _525  and  _526
REMARK  203  A    between atoms: _525  and  _528
REMARK  204  A    between atoms: _528  and  _529
REMARK  205  A    between atoms: _535  and  _536
REMARK  206  A    between atoms: _541  and  _543
REMARK  207  A    between atoms: _543  and  _544
REMARK  208  A    between atoms: _543  and  _546
REMARK  209  A    between atoms: _546  and  _547
REMARK  210  A    between atoms: _550  and  _552
REMARK  211  A    between atoms: _552  and  _553
REMARK  212  A    between atoms: _552  and  _555
REMARK  213  A    between atoms: _555  and  _556
REMARK  214  A    between atoms: _558  and  _560
REMARK  215  A    between atoms: _560  and  _561
REMARK  216  A    between atoms: _560  and  _563
REMARK  217  A    between atoms: _563  and  _564
REMARK  218  A    between atoms: _567  and  _569
REMARK  219  A    between atoms: _569  and  _570
REMARK  220  A    between atoms: _569  and  _572
REMARK  221  A    between atoms: _572  and  _573
REMARK  222  A    between atoms: _578  and  _580
REMARK  223  A    between atoms: _580  and  _581
REMARK  224  A    between atoms: _580  and  _583
REMARK  225  A    between atoms: _583  and  _584
REMARK                            x       y       z     vdW  Elec       q    Type
REMARK                         _______ _______ _______ _____ _____    ______ ____
ROOT
ATOM      1  C   VAL A   1      18.738  14.199  53.185  0.00  0.00    +0.238 C 
ATOM      2  O   VAL A   1      18.388  14.102  54.365  0.00  0.00    -0.274 OA
ATOM      3  N   ALA A   2      19.955  13.876  52.755  0.00  0.00    -0.298 N 
ATOM      4  H   ALA A   2      20.180  14.000  51.747  0.00  0.00    +0.150 HD
ENDROOT
BRANCH   3   5
ATOM      5  CA  ALA A   2      20.988  13.353  53.649  0.00  0.00    +0.137 C 
ATOM      6  CB  ALA A   2      22.240  13.006  52.863  0.00  0.00    +0.030 C 
BRANCH   5   7
ATOM      7  C   ALA A   2      21.314  14.333  54.780  0.00  0.00    +0.227 C 
ATOM      8  O   ALA A   2      21.430  13.931  55.941  0.00  0.00    -0.286 OA
ENDBRANCH   5   7
ENDBRANCH   3   5
BRANCH   1   9
ATOM      9  CA  VAL A   1      17.768  14.730  52.128  0.00  0.00    +0.145 C 
BRANCH   9  10
ATOM     10  CB  VAL A   1      17.047  13.555  51.406  0.00  0.00    +0.025 C 
ATOM     11  CG2 VAL A   1      16.607  12.478  52.394  0.00  0.00    +0.002 C 
ATOM     12  CG1 VAL A   1      15.851  14.066  50.602  0.00  0.00    +0.002 C 
ENDBRANCH   9  10
BRANCH   9  13
ATOM     13  N   VAL A   1      18.441  15.616  51.173  0.00  0.00    -0.238 NA
ATOM     14  H   VAL A   1      18.440  15.348  50.168  0.00  0.00    +0.142 HD
ENDBRANCH   9  13
ENDBRANCH   1   9
TORSDOF 5
REMARK  Name = ../refined-set-2016/2w7y/2w7y_pocket.pdb
REMARK  225 active torsions:
REMARK  status: ('A' for Active; 'I' for Inactive)
REMARK    1  A    between atoms: _1  and  _3
REMARK    2  A    between atoms: _3  and  _4
REMARK    3  A    between atoms: _3  and  _6
REMARK    4  A    between atoms: _6  and  _7
REMARK    5  A    between atoms: _12  and  _13
REMARK    6  A    between atoms: _15  and  _17
REMARK    7  A    between atoms: _17  and  _18
REMARK    8  A    between atoms: _17  and  _20
REMARK    9  A    between atoms: _20  and  _21
REMARK   10  A    between atoms: _26  and  _28
REMARK   11  A    between atoms: _28  and  _29
REMARK   12  A    between atoms: _31  and  _33
REMARK   13  A    between atoms: _33  and  _34
REMARK   14  A    between atoms: _33  and  _36
REMARK   15  A    between atoms: _36  and  _37
REMARK   16  A    between atoms: _42  and  _43
REMARK   17  A    between atoms: _45  and  _47
REMARK   18  A    between atoms: _47  and  _48
REMARK   19  A    between atoms: _47  and  _50
REMARK   20  A    between atoms: _50  and  _51
REMARK   21  A    between atoms: _56  and  _58
REMARK   22  A    between atoms: _58  and  _59
REMARK   23  A    between atoms: _58  and  _61
REMARK   24  A    between atoms: _61  and  _62
REMARK   25  A    between atoms: _67  and  _69
REMARK   26  A    between atoms: _69  and  _70
REMARK   27  A    between atoms: _69  and  _72
REMARK   28  A    between atoms: _72  and  _73
REMARK   29  A    between atoms: _83  and  _85
REMARK   30  A    between atoms: _85  and  _86
REMARK   31  A    between atoms: _85  and  _88
REMARK   32  A    between atoms: _91  and  _93
REMARK   33  A    between atoms: _93  and  _94
REMARK   34  A    between atoms: _97  and  _99
REMARK   35  A    between atoms: _99  and  _100
REMARK   36  A    between atoms: _99  and  _102
REMARK   37  A    between atoms: _102  and  _103
REMARK   38  A    between atoms: _103  and  _104
REMARK   39  A    between atoms: _106  and  _108
REMARK   40  A    between atoms: _108  and  _109
REMARK   41  A    between atoms: _108  and  _111
REMARK   42  A    between atoms: _111  and  _112
REMARK   43  A    between atoms: _117  and  _118
REMARK   44  A    between atoms: _120  and  _122
REMARK   45  A    between atoms: _122  and  _123
REMARK   46  A    between atoms: _122  and  _125
REMARK   47  A    between atoms: _128  and  _130
REMARK   48  A    between atoms: _130  and  _131
REMARK   49  A    between atoms: _130  and  _133
REMARK   50  A    between atoms: _133  and  _134
REMARK   51  A    between atoms: _139  and  _141
REMARK   52  A    between atoms: _141  and  _142
REMARK   53  A    between atoms: _144  and  _146
REMARK   54  A    between atoms: _146  and  _147
REMARK   55  A    between atoms: _146  and  _149
REMARK   56  A    between atoms: _149  and  _150
REMARK   57  A    between atoms: _153  and  _155
REMARK   58  A    between atoms: _155  and  _156
REMARK   59  A    between atoms: _155  and  _158
REMARK   60  A    between atoms: _158  and  _159
REMARK   61  A    between atoms: _159  and  _160
REMARK   62  A    between atoms: _160  and  _161
REMARK   63  A    between atoms: _161  and  _162
REMARK   64  A    between atoms: _166  and  _168
REMARK   65  A    between atoms: _168  and  _169
REMARK   66  A    between atoms: _168  and  _171
REMARK   67  A    between atoms: _171  and  _172
REMARK   68  A    between atoms: _175  and  _177
REMARK   69  A    between atoms: _177  and  _178
REMARK   70  A    between atoms: _177  and  _180
REMARK   71  A    between atoms: _180  and  _181
REMARK   72  A    between atoms: _184  and  _186
REMARK   73  A    between atoms: _186  and  _187
REMARK   74  A    between atoms: _190  and  _192
REMARK   75  A    between atoms: _192  and  _193
REMARK   76  A    between atoms: _195  and  _197
REMARK   77  A    between atoms: _197  and  _198
REMARK   78  A    between atoms: _197  and  _200
REMARK   79  A    between atoms: _200  and  _201
REMARK   80  A    between atoms: _206  and  _208
REMARK   81  A    between atoms: _208  and  _209
REMARK   82  A    between atoms: _212  and  _214
REMARK   83  A    between atoms: _214  and  _215
REMARK   84  A    between atoms: _214  and  _217
REMARK   85  A    between atoms: _217  and  _218
REMARK   86  A    between atoms: _223  and  _225
REMARK   87  A    between atoms: _225  and  _226
REMARK   88  A    between atoms: _225  and  _228
REMARK   89  A    between atoms: _228  and  _229
REMARK   90  A    between atoms: _229  and  _230
REMARK   91  A    between atoms: _233  and  _235
REMARK   92  A    between atoms: _235  and  _236
REMARK   93  A    between atoms: _235  and  _238
REMARK   94  A    between atoms: _238  and  _239
REMARK   95  A    between atoms: _239  and  _240
REMARK   96  A    between atoms: _245  and  _247
REMARK   97  A    between atoms: _247  and  _248
REMARK   98  A    between atoms: _247  and  _250
REMARK   99  A    between atoms: _250  and  _251
REMARK  100  A    between atoms: _254  and  _256
REMARK  101  A    between atoms: _256  and  _257
REMARK  102  A    between atoms: _256  and  _259
REMARK  103  A    between atoms: _259  and  _260
REMARK  104  A    between atoms: _266  and  _268
REMARK  105  A    between atoms: _268  and  _269
REMARK  106  A    between atoms: _268  and  _271
REMARK  107  A    between atoms: _271  and  _272
REMARK  108  A    between atoms: _275  and  _277
REMARK  109  A    between atoms: _277  and  _278
REMARK  110  A    between atoms: _277  and  _280
REMARK  111  A    between atoms: _280  and  _281
REMARK  112  A    between atoms: _281  and  _282
REMARK  113  A    between atoms: _284  and  _286
REMARK  114  A    between atoms: _286  and  _287
REMARK  115  A    between atoms: _286  and  _289
REMARK  116  A    between atoms: _289  and  _290
REMARK  117  A    between atoms: _300  and  _302
REMARK  118  A    between atoms: _302  and  _303
REMARK  119  A    between atoms: _302  and  _305
REMARK  120  A    between atoms: _305  and  _306
REMARK  121  A    between atoms: _306  and  _307
REMARK  122  A    between atoms: _311  and  _312
REMARK  123  A    between atoms: _317  and  _319
REMARK  124  A    between atoms: _319  and  _320
REMARK  125  A    between atoms: _319  and  _322
REMARK  126  A    between atoms: _322  and  _323
REMARK  127  A    between atoms: _326  and  _328
REMARK  128  A    between atoms: _328  and  _329
REMARK  129  A    between atoms: _328  and  _331
REMARK  130  A    between atoms: _331  and  _332
REMARK  131  A    between atoms: _332  and  _333
REMARK  132  A    between atoms: _333  and  _334
REMARK  133  A    between atoms: _343  and  _345
REMARK  134  A    between atoms: _345  and  _346
REMARK  135  A    between atoms: _345  and  _348
REMARK  136  A    between atoms: _348  and  _349
REMARK  137  A    between atoms: _352  and  _354
REMARK  138  A    between atoms: _354  and  _355
REMARK  139  A    between atoms: _358  and  _360
REMARK  140  A    between atoms: _360  and  _361
REMARK  141  A    between atoms: _360  and  _363
REMARK  142  A    between atoms: _363  and  _364
REMARK  143  A    between atoms: _369  and  _371
REMARK  144  A    between atoms: _371  and  _372
REMARK  145  A    between atoms: _375  and  _377
REMARK  146  A    between atoms: _377  and  _378
REMARK  147  A    between atoms: _377  and  _380
REMARK  148  A    between atoms: _380  and  _381
REMARK  149  A    between atoms: _386  and  _387
REMARK  150  A    between atoms: _389  and  _391
REMARK  151  A    between atoms: _391  and  _392
REMARK  152  A    between atoms: _391  and  _394
REMARK  153  A    between atoms: _394  and  _395
REMARK  154  A    between atoms: _397  and  _399
REMARK  155  A    between atoms: _399  and  _400
REMARK  156  A    between atoms: _399  and  _402
REMARK  157  A    between atoms: _402  and  _403
REMARK  158  A    between atoms: _409  and  _411
REMARK  159  A    between atoms: _411  and  _412
REMARK  160  A    between atoms: _411  and  _414
REMARK  161  A    between atoms: _414  and  _415
REMARK  162  A    between atoms: _421  and  _423
REMARK  163  A    between atoms: _423  and  _424
REMARK  164  A    between atoms: _423  and  _426
REMARK  165  A    between atoms: _426  and  _427
REMARK  166  A    between atoms: _432  and  _434
REMARK  167  A    between atoms: _434  and  _435
REMARK  168  A    between atoms: _437  and  _439
REMARK  169  A    between atoms: _439  and  _440
REMARK  170  A    between atoms: _439  and  _442
REMARK  171  A    between atoms: _445  and  _447
REMARK  172  A    between atoms: _447  and  _448
REMARK  173  A    between atoms: _447  and  _450
REMARK  174  A    between atoms: _450  and  _451
REMARK  175  A    between atoms: _461  and  _463
REMARK  176  A    between atoms: _463  and  _464
REMARK  177  A    between atoms: _467  and  _469
REMARK  178  A    between atoms: _469  and  _470
REMARK  179  A    between atoms: _469  and  _472
REMARK  180  A    between atoms: _472  and  _473
REMARK  181  A    between atoms: _473  and  _474
REMARK  182  A    between atoms: _477  and  _479
REMARK  183  A    between atoms: _479  and  _480
REMARK  184  A    between atoms: _479  and  _482
REMARK  185  A    between atoms: _482  and  _483
REMARK  186  A    between atoms: _485  and  _487
REMARK  187  A    between atoms: _487  and  _488
REMARK  188  A    between atoms: _490  and  _492
REMARK  189  A    between atoms: _492  and  _493
REMARK  190  A    between atoms: _495  and  _497
REMARK  191  A    between atoms: _497  and  _498
REMARK  192  A    between atoms: _497  and  _500
REMARK  193  A    between atoms: _500  and  _501
REMARK  194  A    between atoms: _504  and  _506
REMARK  195  A    between atoms: _506  and  _507
REMARK  196  A    between atoms: _506  and  _509
REMARK  197  A    between atoms: _512  and  _514
REMARK  198  A    between atoms: _514  and  _515
REMARK  199  A    between atoms: _517  and  _519
REMARK  200  A    between atoms: _519  and  _520
REMARK  201  A    between atoms: _523  and  _525
REMARK  202  A    between atoms: _525  and  _526
REMARK  203  A    between atoms: _525  and  _528
REMARK  204  A    between atoms: _528  and  _529
REMARK  205  A    between atoms: _535  and  _536
REMARK  206  A    between atoms: _541  and  _543
REMARK  207  A    between atoms: _543  and  _544
REMARK  208  A    between atoms: _543  and  _546
REMARK  209  A    between atoms: _546  and  _547
REMARK  210  A    between atoms: _550  and  _552
REMARK  211  A    between atoms: _552  and  _553
REMARK  212  A    between atoms: _552  and  _555
REMARK  213  A    between atoms: _555  and  _556
REMARK  214  A    between atoms: _558  and  _560
REMARK  215  A    between atoms: _560  and  _561
REMARK  216  A    between atoms: _560  and  _563
REMARK  217  A    between atoms: _563  and  _564
REMARK  218  A    between atoms: _567  and  _569
REMARK  219  A    between atoms: _569  and  _570
REMARK  220  A    between atoms: _569  and  _572
REMARK  221  A    between atoms: _572  and  _573
REMARK  222  A    between atoms: _578  and  _580
REMARK  223  A    between atoms: _580  and  _581
REMARK  224  A    between atoms: _580  and  _583
REMARK  225  A    between atoms: _583  and  _584
REMARK                            x       y       z     vdW  Elec       q    Type
REMARK                         _______ _______ _______ _____ _____    ______ ____
ROOT
ATOM      1  CA  UNL     1      18.629  13.303  58.176  0.00  0.00    +0.000 C 
ENDROOT
BRANCH   1   2
ATOM      2  N   UNL     1      18.522  14.475  57.307  0.00  0.00    +0.000 NA
ATOM      3  H   UNL     1      18.702  14.361  56.289  0.00  0.00    +0.000 HD
ENDBRANCH   1   2
BRANCH   1   4
ATOM      4  C   UNL     1      19.724  13.465  59.225  0.00  0.00    +0.000 C 
ATOM      5  O   UNL     1      19.499  13.178  60.398  0.00  0.00    +0.000 OA
ENDBRANCH   1   4
BRANCH   1   6
ATOM      6  C   UNL     1      18.891  12.037  57.357  0.00  0.00    +0.000 C 
BRANCH   6   7
ATOM      7  C   UNL     1      17.764  11.625  56.441  0.00  0.00    +0.000 C 
BRANCH   7   8
ATOM      8 SE   UNL     1      16.128  11.142  57.376  0.00  0.00    +0.000 Se
ATOM      9  C   UNL     1      15.329  10.170  55.923  0.00  0.00    +0.000 C 
ENDBRANCH   7   8
ENDBRANCH   6   7
ENDBRANCH   1   6
TORSDOF 5
REMARK  Name = ../refined-set-2016/2w7y/2w7y_pocket.pdb
REMARK  225 active torsions:
REMARK  status: ('A' for Active; 'I' for Inactive)
REMARK    1  A    between atoms: _1  and  _3
REMARK    2  A    between atoms: _3  and  _4
REMARK    3  A    between atoms: _3  and  _6
REMARK    4  A    between atoms: _6  and  _7
REMARK    5  A    between atoms: _12  and  _13
REMARK    6  A    between atoms: _15  and  _17
REMARK    7  A    between atoms: _17  and  _18
REMARK    8  A    between atoms: _17  and  _20
REMARK    9  A    between atoms: _20  and  _21
REMARK   10  A    between atoms: _26  and  _28
REMARK   11  A    between atoms: _28  and  _29
REMARK   12  A    between atoms: _31  and  _33
REMARK   13  A    between atoms: _33  and  _34
REMARK   14  A    between atoms: _33  and  _36
REMARK   15  A    between atoms: _36  and  _37
REMARK   16  A    between atoms: _42  and  _43
REMARK   17  A    between atoms: _45  and  _47
REMARK   18  A    between atoms: _47  and  _48
REMARK   19  A    between atoms: _47  and  _50
REMARK   20  A    between atoms: _50  and  _51
REMARK   21  A    between atoms: _56  and  _58
REMARK   22  A    between atoms: _58  and  _59
REMARK   23  A    between atoms: _58  and  _61
REMARK   24  A    between atoms: _61  and  _62
REMARK   25  A    between atoms: _67  and  _69
REMARK   26  A    between atoms: _69  and  _70
REMARK   27  A    between atoms: _69  and  _72
REMARK   28  A    between atoms: _72  and  _73
REMARK   29  A    between atoms: _83  and  _85
REMARK   30  A    between atoms: _85  and  _86
REMARK   31  A    between atoms: _85  and  _88
REMARK   32  A    between atoms: _91  and  _93
REMARK   33  A    between atoms: _93  and  _94
REMARK   34  A    between atoms: _97  and  _99
REMARK   35  A    between atoms: _99  and  _100
REMARK   36  A    between atoms: _99  and  _102
REMARK   37  A    between atoms: _102  and  _103
REMARK   38  A    between atoms: _103  and  _104
REMARK   39  A    between atoms: _106  and  _108
REMARK   40  A    between atoms: _108  and  _109
REMARK   41  A    between atoms: _108  and  _111
REMARK   42  A    between atoms: _111  and  _112
REMARK   43  A    between atoms: _117  and  _118
REMARK   44  A    between atoms: _120  and  _122
REMARK   45  A    between atoms: _122  and  _123
REMARK   46  A    between atoms: _122  and  _125
REMARK   47  A    between atoms: _128  and  _130
REMARK   48  A    between atoms: _130  and  _131
REMARK   49  A    between atoms: _130  and  _133
REMARK   50  A    between atoms: _133  and  _134
REMARK   51  A    between atoms: _139  and  _141
REMARK   52  A    between atoms: _141  and  _142
REMARK   53  A    between atoms: _144  and  _146
REMARK   54  A    between atoms: _146  and  _147
REMARK   55  A    between atoms: _146  and  _149
REMARK   56  A    between atoms: _149  and  _150
REMARK   57  A    between atoms: _153  and  _155
REMARK   58  A    between atoms: _155  and  _156
REMARK   59  A    between atoms: _155  and  _158
REMARK   60  A    between atoms: _158  and  _159
REMARK   61  A    between atoms: _159  and  _160
REMARK   62  A    between atoms: _160  and  _161
REMARK   63  A    between atoms: _161  and  _162
REMARK   64  A    between atoms: _166  and  _168
REMARK   65  A    between atoms: _168  and  _169
REMARK   66  A    between atoms: _168  and  _171
REMARK   67  A    between atoms: _171  and  _172
REMARK   68  A    between atoms: _175  and  _177
REMARK   69  A    between atoms: _177  and  _178
REMARK   70  A    between atoms: _177  and  _180
REMARK   71  A    between atoms: _180  and  _181
REMARK   72  A    between atoms: _184  and  _186
REMARK   73  A    between atoms: _186  and  _187
REMARK   74  A    between atoms: _190  and  _192
REMARK   75  A    between atoms: _192  and  _193
REMARK   76  A    between atoms: _195  and  _197
REMARK   77  A    between atoms: _197  and  _198
REMARK   78  A    between atoms: _197  and  _200
REMARK   79  A    between atoms: _200  and  _201
REMARK   80  A    between atoms: _206  and  _208
REMARK   81  A    between atoms: _208  and  _209
REMARK   82  A    between atoms: _212  and  _214
REMARK   83  A    between atoms: _214  and  _215
REMARK   84  A    between atoms: _214  and  _217
REMARK   85  A    between atoms: _217  and  _218
REMARK   86  A    between atoms: _223  and  _225
REMARK   87  A    between atoms: _225  and  _226
REMARK   88  A    between atoms: _225  and  _228
REMARK   89  A    between atoms: _228  and  _229
REMARK   90  A    between atoms: _229  and  _230
REMARK   91  A    between atoms: _233  and  _235
REMARK   92  A    between atoms: _235  and  _236
REMARK   93  A    between atoms: _235  and  _238
REMARK   94  A    between atoms: _238  and  _239
REMARK   95  A    between atoms: _239  and  _240
REMARK   96  A    between atoms: _245  and  _247
REMARK   97  A    between atoms: _247  and  _248
REMARK   98  A    between atoms: _247  and  _250
REMARK   99  A    between atoms: _250  and  _251
REMARK  100  A    between atoms: _254  and  _256
REMARK  101  A    between atoms: _256  and  _257
REMARK  102  A    between atoms: _256  and  _259
REMARK  103  A    between atoms: _259  and  _260
REMARK  104  A    between atoms: _266  and  _268
REMARK  105  A    between atoms: _268  and  _269
REMARK  106  A    between atoms: _268  and  _271
REMARK  107  A    between atoms: _271  and  _272
REMARK  108  A    between atoms: _275  and  _277
REMARK  109  A    between atoms: _277  and  _278
REMARK  110  A    between atoms: _277  and  _280
REMARK  111  A    between atoms: _280  and  _281
REMARK  112  A    between atoms: _281  and  _282
REMARK  113  A    between atoms: _284  and  _286
REMARK  114  A    between atoms: _286  and  _287
REMARK  115  A    between atoms: _286  and  _289
REMARK  116  A    between atoms: _289  and  _290
REMARK  117  A    between atoms: _300  and  _302
REMARK  118  A    between atoms: _302  and  _303
REMARK  119  A    between atoms: _302  and  _305
REMARK  120  A    between atoms: _305  and  _306
REMARK  121  A    between atoms: _306  and  _307
REMARK  122  A    between atoms: _311  and  _312
REMARK  123  A    between atoms: _317  and  _319
REMARK  124  A    between atoms: _319  and  _320
REMARK  125  A    between atoms: _319  and  _322
REMARK  126  A    between atoms: _322  and  _323
REMARK  127  A    between atoms: _326  and  _328
REMARK  128  A    between atoms: _328  and  _329
REMARK  129  A    between atoms: _328  and  _331
REMARK  130  A    between atoms: _331  and  _332
REMARK  131  A    between atoms: _332  and  _333
REMARK  132  A    between atoms: _333  and  _334
REMARK  133  A    between atoms: _343  and  _345
REMARK  134  A    between atoms: _345  and  _346
REMARK  135  A    between atoms: _345  and  _348
REMARK  136  A    between atoms: _348  and  _349
REMARK  137  A    between atoms: _352  and  _354
REMARK  138  A    between atoms: _354  and  _355
REMARK  139  A    between atoms: _358  and  _360
REMARK  140  A    between atoms: _360  and  _361
REMARK  141  A    between atoms: _360  and  _363
REMARK  142  A    between atoms: _363  and  _364
REMARK  143  A    between atoms: _369  and  _371
REMARK  144  A    between atoms: _371  and  _372
REMARK  145  A    between atoms: _375  and  _377
REMARK  146  A    between atoms: _377  and  _378
REMARK  147  A    between atoms: _377  and  _380
REMARK  148  A    between atoms: _380  and  _381
REMARK  149  A    between atoms: _386  and  _387
REMARK  150  A    between atoms: _389  and  _391
REMARK  151  A    between atoms: _391  and  _392
REMARK  152  A    between atoms: _391  and  _394
REMARK  153  A    between atoms: _394  and  _395
REMARK  154  A    between atoms: _397  and  _399
REMARK  155  A    between atoms: _399  and  _400
REMARK  156  A    between atoms: _399  and  _402
REMARK  157  A    between atoms: _402  and  _403
REMARK  158  A    between atoms: _409  and  _411
REMARK  159  A    between atoms: _411  and  _412
REMARK  160  A    between atoms: _411  and  _414
REMARK  161  A    between atoms: _414  and  _415
REMARK  162  A    between atoms: _421  and  _423
REMARK  163  A    between atoms: _423  and  _424
REMARK  164  A    between atoms: _423  and  _426
REMARK  165  A    between atoms: _426  and  _427
REMARK  166  A    between atoms: _432  and  _434
REMARK  167  A    between atoms: _434  and  _435
REMARK  168  A    between atoms: _437  and  _439
REMARK  169  A    between atoms: _439  and  _440
REMARK  170  A    between atoms: _439  and  _442
REMARK  171  A    between atoms: _445  and  _447
REMARK  172  A    between atoms: _447  and  _448
REMARK  173  A    between atoms: _447  and  _450
REMARK  174  A    between atoms: _450  and  _451
REMARK  175  A    between atoms: _461  and  _463
REMARK  176  A    between atoms: _463  and  _464
REMARK  177  A    between atoms: _467  and  _469
REMARK  178  A    between atoms: _469  and  _470
REMARK  179  A    between atoms: _469  and  _472
REMARK  180  A    between atoms: _472  and  _473
REMARK  181  A    between atoms: _473  and  _474
REMARK  182  A    between atoms: _477  and  _479
REMARK  183  A    between atoms: _479  and  _480
REMARK  184  A    between atoms: _479  and  _482
REMARK  185  A    between atoms: _482  and  _483
REMARK  186  A    between atoms: _485  and  _487
REMARK  187  A    between atoms: _487  and  _488
REMARK  188  A    between atoms: _490  and  _492
REMARK  189  A    between atoms: _492  and  _493
REMARK  190  A    between atoms: _495  and  _497
REMARK  191  A    between atoms: _497  and  _498
REMARK  192  A    between atoms: _497  and  _500
REMARK  193  A    between atoms: _500  and  _501
REMARK  194  A    between atoms: _504  and  _506
REMARK  195  A    between atoms: _506  and  _507
REMARK  196  A    between atoms: _506  and  _509
REMARK  197  A    between atoms: _512  and  _514
REMARK  198  A    between atoms: _514  and  _515
REMARK  199  A    between atoms: _517  and  _519
REMARK  200  A    between atoms: _519  and  _520
REMARK  201  A    between atoms: _523  and  _525
REMARK  202  A    between atoms: _525  and  _526
REMARK  203  A    between atoms: _525  and  _528
REMARK  204  A    between atoms: _528  and  _529
REMARK  205  A    between atoms: _535  and  _536
REMARK  206  A    between atoms: _541  and  _543
REMARK  207  A    between atoms: _543  and  _544
REMARK  208  A    between atoms: _543  and  _546
REMARK  209  A    between atoms: _546  and  _547
REMARK  210  A    between atoms: _550  and  _552
REMARK  211  A    between atoms: _552  and  _553
REMARK  212  A    between atoms: _552  and  _555
REMARK  213  A    between atoms: _555  and  _556
REMARK  214  A    between atoms: _558  and  _560
REMARK  215  A    between atoms: _560  and  _561
REMARK  216  A    between atoms: _560  and  _563
REMARK  217  A    between atoms: _563  and  _564
REMARK  218  A    between atoms: _567  and  _569
REMARK  219  A    between atoms: _569  and  _570
REMARK  220  A    between atoms: _569  and  _572
REMARK  221  A    between atoms: _572  and  _573
REMARK  222  A    between atoms: _578  and  _580
REMARK  223  A    between atoms: _580  and  _581
REMARK  224  A    between atoms: _580  and  _583
REMARK  225  A    between atoms: _583  and  _584
REMARK                            x       y       z     vdW  Elec       q    Type
REMARK                         _______ _______ _______ _____ _____    ______ ____
ROOT
ATOM      1  CG  TYR A   1      20.929  10.999  62.355  0.00  0.00    -0.020 A 
ATOM      2  CD2 TYR A   1      19.688  10.372  62.503  0.00  0.00    -0.001 A 
ATOM      3  CE2 TYR A   1      19.163   9.570  61.492  0.00  0.00    +0.036 A 
ATOM      4  CZ  TYR A   1      19.888   9.375  60.328  0.00  0.00    +0.134 A 
ATOM      5  CE1 TYR A   1      21.125   9.973  60.159  0.00  0.00    +0.036 A 
ATOM      6  CD1 TYR A   1      21.642  10.776  61.174  0.00  0.00    -0.001 A 
ENDROOT
BRANCH   4   7
ATOM      7  OH  TYR A   1      19.385   8.582  59.327  0.00  0.00    -0.506 OA
ATOM      8  HH  TYR A   1      18.500   8.232  59.599  0.00  0.00    +0.292 HD
ENDBRANCH   4   7
BRANCH   1   9
ATOM      9  CB  TYR A   1      21.517  11.864  63.453  0.00  0.00    +0.051 C 
BRANCH   9  10
ATOM     10  CA  TYR A   1      20.526  12.697  64.277  0.00  0.00    +0.137 C 
BRANCH  10  11
ATOM     11  N   TYR A   1      19.718  13.575  63.424  0.00  0.00    -0.239 NA
ATOM     12  H   TYR A   1      20.029  13.750  62.447  0.00  0.00    +0.142 HD
ENDBRANCH  10  11
BRANCH  10  13
ATOM     13  C   TYR A   1      21.297  13.438  65.370  0.00  0.00    +0.224 C 
ATOM     14  O   TYR A   1      21.207  13.082  66.541  0.00  0.00    -0.287 OA
ENDBRANCH  10  13
ENDBRANCH   9  10
ENDBRANCH   1   9
TORSDOF 5
REMARK  Name = ../refined-set-2016/2w7y/2w7y_pocket.pdb
REMARK  225 active torsions:
REMARK  status: ('A' for Active; 'I' for Inactive)
REMARK    1  A    between atoms: _1  and  _3
REMARK    2  A    between atoms: _3  and  _4
REMARK    3  A    between atoms: _3  and  _6
REMARK    4  A    between atoms: _6  and  _7
REMARK    5  A    between atoms: _12  and  _13
REMARK    6  A    between atoms: _15  and  _17
REMARK    7  A    between atoms: _17  and  _18
REMARK    8  A    between atoms: _17  and  _20
REMARK    9  A    between atoms: _20  and  _21
REMARK   10  A    between atoms: _26  and  _28
REMARK   11  A    between atoms: _28  and  _29
REMARK   12  A    between atoms: _31  and  _33
REMARK   13  A    between atoms: _33  and  _34
REMARK   14  A    between atoms: _33  and  _36
REMARK   15  A    between atoms: _36  and  _37
REMARK   16  A    between atoms: _42  and  _43
REMARK   17  A    between atoms: _45  and  _47
REMARK   18  A    between atoms: _47  and  _48
REMARK   19  A    between atoms: _47  and  _50
REMARK   20  A    between atoms: _50  and  _51
REMARK   21  A    between atoms: _56  and  _58
REMARK   22  A    between atoms: _58  and  _59
REMARK   23  A    between atoms: _58  and  _61
REMARK   24  A    between atoms: _61  and  _62
REMARK   25  A    between atoms: _67  and  _69
REMARK   26  A    between atoms: _69  and  _70
REMARK   27  A    between atoms: _69  and  _72
REMARK   28  A    between atoms: _72  and  _73
REMARK   29  A    between atoms: _83  and  _85
REMARK   30  A    between atoms: _85  and  _86
REMARK   31  A    between atoms: _85  and  _88
REMARK   32  A    between atoms: _91  and  _93
REMARK   33  A    between atoms: _93  and  _94
REMARK   34  A    between atoms: _97  and  _99
REMARK   35  A    between atoms: _99  and  _100
REMARK   36  A    between atoms: _99  and  _102
REMARK   37  A    between atoms: _102  and  _103
REMARK   38  A    between atoms: _103  and  _104
REMARK   39  A    between atoms: _106  and  _108
REMARK   40  A    between atoms: _108  and  _109
REMARK   41  A    between atoms: _108  and  _111
REMARK   42  A    between atoms: _111  and  _112
REMARK   43  A    between atoms: _117  and  _118
REMARK   44  A    between atoms: _120  and  _122
REMARK   45  A    between atoms: _122  and  _123
REMARK   46  A    between atoms: _122  and  _125
REMARK   47  A    between atoms: _128  and  _130
REMARK   48  A    between atoms: _130  and  _131
REMARK   49  A    between atoms: _130  and  _133
REMARK   50  A    between atoms: _133  and  _134
REMARK   51  A    between atoms: _139  and  _141
REMARK   52  A    between atoms: _141  and  _142
REMARK   53  A    between atoms: _144  and  _146
REMARK   54  A    between atoms: _146  and  _147
REMARK   55  A    between atoms: _146  and  _149
REMARK   56  A    between atoms: _149  and  _150
REMARK   57  A    between atoms: _153  and  _155
REMARK   58  A    between atoms: _155  and  _156
REMARK   59  A    between atoms: _155  and  _158
REMARK   60  A    between atoms: _158  and  _159
REMARK   61  A    between atoms: _159  and  _160
REMARK   62  A    between atoms: _160  and  _161
REMARK   63  A    between atoms: _161  and  _162
REMARK   64  A    between atoms: _166  and  _168
REMARK   65  A    between atoms: _168  and  _169
REMARK   66  A    between atoms: _168  and  _171
REMARK   67  A    between atoms: _171  and  _172
REMARK   68  A    between atoms: _175  and  _177
REMARK   69  A    between atoms: _177  and  _178
REMARK   70  A    between atoms: _177  and  _180
REMARK   71  A    between atoms: _180  and  _181
REMARK   72  A    between atoms: _184  and  _186
REMARK   73  A    between atoms: _186  and  _187
REMARK   74  A    between atoms: _190  and  _192
REMARK   75  A    between atoms: _192  and  _193
REMARK   76  A    between atoms: _195  and  _197
REMARK   77  A    between atoms: _197  and  _198
REMARK   78  A    between atoms: _197  and  _200
REMARK   79  A    between atoms: _200  and  _201
REMARK   80  A    between atoms: _206  and  _208
REMARK   81  A    between atoms: _208  and  _209
REMARK   82  A    between atoms: _212  and  _214
REMARK   83  A    between atoms: _214  and  _215
REMARK   84  A    between atoms: _214  and  _217
REMARK   85  A    between atoms: _217  and  _218
REMARK   86  A    between atoms: _223  and  _225
REMARK   87  A    between atoms: _225  and  _226
REMARK   88  A    between atoms: _225  and  _228
REMARK   89  A    between atoms: _228  and  _229
REMARK   90  A    between atoms: _229  and  _230
REMARK   91  A    between atoms: _233  and  _235
REMARK   92  A    between atoms: _235  and  _236
REMARK   93  A    between atoms: _235  and  _238
REMARK   94  A    between atoms: _238  and  _239
REMARK   95  A    between atoms: _239  and  _240
REMARK   96  A    between atoms: _245  and  _247
REMARK   97  A    between atoms: _247  and  _248
REMARK   98  A    between atoms: _247  and  _250
REMARK   99  A    between atoms: _250  and  _251
REMARK  100  A    between atoms: _254  and  _256
REMARK  101  A    between atoms: _256  and  _257
REMARK  102  A    between atoms: _256  and  _259
REMARK  103  A    between atoms: _259  and  _260
REMARK  104  A    between atoms: _266  and  _268
REMARK  105  A    between atoms: _268  and  _269
REMARK  106  A    between atoms: _268  and  _271
REMARK  107  A    between atoms: _271  and  _272
REMARK  108  A    between atoms: _275  and  _277
REMARK  109  A    between atoms: _277  and  _278
REMARK  110  A    between atoms: _277  and  _280
REMARK  111  A    between atoms: _280  and  _281
REMARK  112  A    between atoms: _281  and  _282
REMARK  113  A    between atoms: _284  and  _286
REMARK  114  A    between atoms: _286  and  _287
REMARK  115  A    between atoms: _286  and  _289
REMARK  116  A    between atoms: _289  and  _290
REMARK  117  A    between atoms: _300  and  _302
REMARK  118  A    between atoms: _302  and  _303
REMARK  119  A    between atoms: _302  and  _305
REMARK  120  A    between atoms: _305  and  _306
REMARK  121  A    between atoms: _306  and  _307
REMARK  122  A    between atoms: _311  and  _312
REMARK  123  A    between atoms: _317  and  _319
REMARK  124  A    between atoms: _319  and  _320
REMARK  125  A    between atoms: _319  and  _322
REMARK  126  A    between atoms: _322  and  _323
REMARK  127  A    between atoms: _326  and  _328
REMARK  128  A    between atoms: _328  and  _329
REMARK  129  A    between atoms: _328  and  _331
REMARK  130  A    between atoms: _331  and  _332
REMARK  131  A    between atoms: _332  and  _333
REMARK  132  A    between atoms: _333  and  _334
REMARK  133  A    between atoms: _343  and  _345
REMARK  134  A    between atoms: _345  and  _346
REMARK  135  A    between atoms: _345  and  _348
REMARK  136  A    between atoms: _348  and  _349
REMARK  137  A    between atoms: _352  and  _354
REMARK  138  A    between atoms: _354  and  _355
REMARK  139  A    between atoms: _358  and  _360
REMARK  140  A    between atoms: _360  and  _361
REMARK  141  A    between atoms: _360  and  _363
REMARK  142  A    between atoms: _363  and  _364
REMARK  143  A    between atoms: _369  and  _371
REMARK  144  A    between atoms: _371  and  _372
REMARK  145  A    between atoms: _375  and  _377
REMARK  146  A    between atoms: _377  and  _378
REMARK  147  A    between atoms: _377  and  _380
REMARK  148  A    between atoms: _380  and  _381
REMARK  149  A    between atoms: _386  and  _387
REMARK  150  A    between atoms: _389  and  _391
REMARK  151  A    between atoms: _391  and  _392
REMARK  152  A    between atoms: _391  and  _394
REMARK  153  A    between atoms: _394  and  _395
REMARK  154  A    between atoms: _397  and  _399
REMARK  155  A    between atoms: _399  and  _400
REMARK  156  A    between atoms: _399  and  _402
REMARK  157  A    between atoms: _402  and  _403
REMARK  158  A    between atoms: _409  and  _411
REMARK  159  A    between atoms: _411  and  _412
REMARK  160  A    between atoms: _411  and  _414
REMARK  161  A    between atoms: _414  and  _415
REMARK  162  A    between atoms: _421  and  _423
REMARK  163  A    between atoms: _423  and  _424
REMARK  164  A    between atoms: _423  and  _426
REMARK  165  A    between atoms: _426  and  _427
REMARK  166  A    between atoms: _432  and  _434
REMARK  167  A    between atoms: _434  and  _435
REMARK  168  A    between atoms: _437  and  _439
REMARK  169  A    between atoms: _439  and  _440
REMARK  170  A    between atoms: _439  and  _442
REMARK  171  A    between atoms: _445  and  _447
REMARK  172  A    between atoms: _447  and  _448
REMARK  173  A    between atoms: _447  and  _450
REMARK  174  A    between atoms: _450  and  _451
REMARK  175  A    between atoms: _461  and  _463
REMARK  176  A    between atoms: _463  and  _464
REMARK  177  A    between atoms: _467  and  _469
REMARK  178  A    between atoms: _469  and  _470
REMARK  179  A    between atoms: _469  and  _472
REMARK  180  A    between atoms: _472  and  _473
REMARK  181  A    between atoms: _473  and  _474
REMARK  182  A    between atoms: _477  and  _479
REMARK  183  A    between atoms: _479  and  _480
REMARK  184  A    between atoms: _479  and  _482
REMARK  185  A    between atoms: _482  and  _483
REMARK  186  A    between atoms: _485  and  _487
REMARK  187  A    between atoms: _487  and  _488
REMARK  188  A    between atoms: _490  and  _492
REMARK  189  A    between atoms: _492  and  _493
REMARK  190  A    between atoms: _495  and  _497
REMARK  191  A    between atoms: _497  and  _498
REMARK  192  A    between atoms: _497  and  _500
REMARK  193  A    between atoms: _500  and  _501
REMARK  194  A    between atoms: _504  and  _506
REMARK  195  A    between atoms: _506  and  _507
REMARK  196  A    between atoms: _506  and  _509
REMARK  197  A    between atoms: _512  and  _514
REMARK  198  A    between atoms: _514  and  _515
REMARK  199  A    between atoms: _517  and  _519
REMARK  200  A    between atoms: _519  and  _520
REMARK  201  A    between atoms: _523  and  _525
REMARK  202  A    between atoms: _525  and  _526
REMARK  203  A    between atoms: _525  and  _528
REMARK  204  A    between atoms: _528  and  _529
REMARK  205  A    between atoms: _535  and  _536
REMARK  206  A    between atoms: _541  and  _543
REMARK  207  A    between atoms: _543  and  _544
REMARK  208  A    between atoms: _543  and  _546
REMARK  209  A    between atoms: _546  and  _547
REMARK  210  A    between atoms: _550  and  _552
REMARK  211  A    between atoms: _552  and  _553
REMARK  212  A    between atoms: _552  and  _555
REMARK  213  A    between atoms: _555  and  _556
REMARK  214  A    between atoms: _558  and  _560
REMARK  215  A    between atoms: _560  and  _561
REMARK  216  A    between atoms: _560  and  _563
REMARK  217  A    between atoms: _563  and  _564
REMARK  218  A    between atoms: _567  and  _569
REMARK  219  A    between atoms: _569  and  _570
REMARK  220  A    between atoms: _569  and  _572
REMARK  221  A    between atoms: _572  and  _573
REMARK  222  A    between atoms: _578  and  _580
REMARK  223  A    between atoms: _580  and  _581
REMARK  224  A    between atoms: _580  and  _583
REMARK  225  A    between atoms: _583  and  _584
REMARK                            x       y       z     vdW  Elec       q    Type
REMARK                         _______ _______ _______ _____ _____    ______ ____
ROOT
ATOM      1  CA  ASN A   2      30.070   5.760  52.272  0.00  0.00    +0.158 C 
ENDROOT
BRANCH   1   3
ATOM      2  C   VAL A   1      28.752   5.515  54.313  0.00  0.00    +0.238 C 
ATOM      3  N   ASN A   2      29.933   5.668  53.719  0.00  0.00    -0.297 N 
ATOM      4  H   ASN A   2      30.788   5.724  54.309  0.00  0.00    +0.150 HD
ATOM      5  O   VAL A   1      27.678   5.560  53.708  0.00  0.00    -0.274 OA
BRANCH   2   6
ATOM      6  CA  VAL A   1      28.793   5.290  55.822  0.00  0.00    +0.145 C 
BRANCH   6   7
ATOM      7  CB  VAL A   1      28.264   3.870  56.168  0.00  0.00    +0.025 C 
ATOM      8  CG2 VAL A   1      28.475   3.564  57.651  0.00  0.00    +0.002 C 
ATOM      9  CG1 VAL A   1      28.933   2.817  55.298  0.00  0.00    +0.002 C 
ENDBRANCH   6   7
BRANCH   6  10
ATOM     10  N   VAL A   1      28.054   6.326  56.533  0.00  0.00    -0.238 NA
ATOM     11  H   VAL A   1      27.016   6.268  56.572  0.00  0.00    +0.142 HD
ENDBRANCH   6  10
ENDBRANCH   2   6
ENDBRANCH   1   3
BRANCH   1  12
ATOM     12  C   ASN A   2      30.418   4.380  51.726  0.00  0.00    +0.241 C 
ATOM     13  O   ASN A   2      31.550   3.905  51.874  0.00  0.00    -0.273 OA
ATOM     14  N   GLY A   3      29.430   3.735  51.114  0.00  0.00    -0.296 N 
ATOM     15  H   GLY A   3      28.529   4.230  50.956  0.00  0.00    +0.150 HD
BRANCH  14  16
ATOM     16  CA  GLY A   3      29.565   2.357  50.657  0.00  0.00    +0.163 C 
BRANCH  16  17
ATOM     17  C   GLY A   3      28.452   1.480  51.194  0.00  0.00    +0.229 C 
ATOM     18  O   GLY A   3      27.393   1.975  51.581  0.00  0.00    -0.286 OA
ENDBRANCH  16  17
ENDBRANCH  14  16
ENDBRANCH   1  12
BRANCH   1  19
ATOM     19  CB  ASN A   2      31.132   6.799  51.891  0.00  0.00    +0.114 C 
BRANCH  19  20
ATOM     20  CG  ASN A   2      31.137   7.129  50.401  0.00  0.00    +0.222 C 
ATOM     21  OD1 ASN A   2      32.144   7.599  49.869  0.00  0.00    -0.275 OA
ATOM     22  ND2 ASN A   2      30.012   6.897  49.726  0.00  0.00    -0.329 N 
ATOM     23 HD21 ASN A   2      29.185   6.499  50.215  0.00  0.00    +0.145 HD
ATOM     24 HD22 ASN A   2      29.961   7.114  48.710  0.00  0.00    +0.145 HD
ENDBRANCH  19  20
ENDBRANCH   1  19
TORSDOF 9
REMARK  Name = ../refined-set-2016/2w7y/2w7y_pocket.pdb
REMARK  225 active torsions:
REMARK  status: ('A' for Active; 'I' for Inactive)
REMARK    1  A    between atoms: _1  and  _3
REMARK    2  A    between atoms: _3  and  _4
REMARK    3  A    between atoms: _3  and  _6
REMARK    4  A    between atoms: _6  and  _7
REMARK    5  A    between atoms: _12  and  _13
REMARK    6  A    between atoms: _15  and  _17
REMARK    7  A    between atoms: _17  and  _18
REMARK    8  A    between atoms: _17  and  _20
REMARK    9  A    between atoms: _20  and  _21
REMARK   10  A    between atoms: _26  and  _28
REMARK   11  A    between atoms: _28  and  _29
REMARK   12  A    between atoms: _31  and  _33
REMARK   13  A    between atoms: _33  and  _34
REMARK   14  A    between atoms: _33  and  _36
REMARK   15  A    between atoms: _36  and  _37
REMARK   16  A    between atoms: _42  and  _43
REMARK   17  A    between atoms: _45  and  _47
REMARK   18  A    between atoms: _47  and  _48
REMARK   19  A    between atoms: _47  and  _50
REMARK   20  A    between atoms: _50  and  _51
REMARK   21  A    between atoms: _56  and  _58
REMARK   22  A    between atoms: _58  and  _59
REMARK   23  A    between atoms: _58  and  _61
REMARK   24  A    between atoms: _61  and  _62
REMARK   25  A    between atoms: _67  and  _69
REMARK   26  A    between atoms: _69  and  _70
REMARK   27  A    between atoms: _69  and  _72
REMARK   28  A    between atoms: _72  and  _73
REMARK   29  A    between atoms: _83  and  _85
REMARK   30  A    between atoms: _85  and  _86
REMARK   31  A    between atoms: _85  and  _88
REMARK   32  A    between atoms: _91  and  _93
REMARK   33  A    between atoms: _93  and  _94
REMARK   34  A    between atoms: _97  and  _99
REMARK   35  A    between atoms: _99  and  _100
REMARK   36  A    between atoms: _99  and  _102
REMARK   37  A    between atoms: _102  and  _103
REMARK   38  A    between atoms: _103  and  _104
REMARK   39  A    between atoms: _106  and  _108
REMARK   40  A    between atoms: _108  and  _109
REMARK   41  A    between atoms: _108  and  _111
REMARK   42  A    between atoms: _111  and  _112
REMARK   43  A    between atoms: _117  and  _118
REMARK   44  A    between atoms: _120  and  _122
REMARK   45  A    between atoms: _122  and  _123
REMARK   46  A    between atoms: _122  and  _125
REMARK   47  A    between atoms: _128  and  _130
REMARK   48  A    between atoms: _130  and  _131
REMARK   49  A    between atoms: _130  and  _133
REMARK   50  A    between atoms: _133  and  _134
REMARK   51  A    between atoms: _139  and  _141
REMARK   52  A    between atoms: _141  and  _142
REMARK   53  A    between atoms: _144  and  _146
REMARK   54  A    between atoms: _146  and  _147
REMARK   55  A    between atoms: _146  and  _149
REMARK   56  A    between atoms: _149  and  _150
REMARK   57  A    between atoms: _153  and  _155
REMARK   58  A    between atoms: _155  and  _156
REMARK   59  A    between atoms: _155  and  _158
REMARK   60  A    between atoms: _158  and  _159
REMARK   61  A    between atoms: _159  and  _160
REMARK   62  A    between atoms: _160  and  _161
REMARK   63  A    between atoms: _161  and  _162
REMARK   64  A    between atoms: _166  and  _168
REMARK   65  A    between atoms: _168  and  _169
REMARK   66  A    between atoms: _168  and  _171
REMARK   67  A    between atoms: _171  and  _172
REMARK   68  A    between atoms: _175  and  _177
REMARK   69  A    between atoms: _177  and  _178
REMARK   70  A    between atoms: _177  and  _180
REMARK   71  A    between atoms: _180  and  _181
REMARK   72  A    between atoms: _184  and  _186
REMARK   73  A    between atoms: _186  and  _187
REMARK   74  A    between atoms: _190  and  _192
REMARK   75  A    between atoms: _192  and  _193
REMARK   76  A    between atoms: _195  and  _197
REMARK   77  A    between atoms: _197  and  _198
REMARK   78  A    between atoms: _197  and  _200
REMARK   79  A    between atoms: _200  and  _201
REMARK   80  A    between atoms: _206  and  _208
REMARK   81  A    between atoms: _208  and  _209
REMARK   82  A    between atoms: _212  and  _214
REMARK   83  A    between atoms: _214  and  _215
REMARK   84  A    between atoms: _214  and  _217
REMARK   85  A    between atoms: _217  and  _218
REMARK   86  A    between atoms: _223  and  _225
REMARK   87  A    between atoms: _225  and  _226
REMARK   88  A    between atoms: _225  and  _228
REMARK   89  A    between atoms: _228  and  _229
REMARK   90  A    between atoms: _229  and  _230
REMARK   91  A    between atoms: _233  and  _235
REMARK   92  A    between atoms: _235  and  _236
REMARK   93  A    between atoms: _235  and  _238
REMARK   94  A    between atoms: _238  and  _239
REMARK   95  A    between atoms: _239  and  _240
REMARK   96  A    between atoms: _245  and  _247
REMARK   97  A    between atoms: _247  and  _248
REMARK   98  A    between atoms: _247  and  _250
REMARK   99  A    between atoms: _250  and  _251
REMARK  100  A    between atoms: _254  and  _256
REMARK  101  A    between atoms: _256  and  _257
REMARK  102  A    between atoms: _256  and  _259
REMARK  103  A    between atoms: _259  and  _260
REMARK  104  A    between atoms: _266  and  _268
REMARK  105  A    between atoms: _268  and  _269
REMARK  106  A    between atoms: _268  and  _271
REMARK  107  A    between atoms: _271  and  _272
REMARK  108  A    between atoms: _275  and  _277
REMARK  109  A    between atoms: _277  and  _278
REMARK  110  A    between atoms: _277  and  _280
REMARK  111  A    between atoms: _280  and  _281
REMARK  112  A    between atoms: _281  and  _282
REMARK  113  A    between atoms: _284  and  _286
REMARK  114  A    between atoms: _286  and  _287
REMARK  115  A    between atoms: _286  and  _289
REMARK  116  A    between atoms: _289  and  _290
REMARK  117  A    between atoms: _300  and  _302
REMARK  118  A    between atoms: _302  and  _303
REMARK  119  A    between atoms: _302  and  _305
REMARK  120  A    between atoms: _305  and  _306
REMARK  121  A    between atoms: _306  and  _307
REMARK  122  A    between atoms: _311  and  _312
REMARK  123  A    between atoms: _317  and  _319
REMARK  124  A    between atoms: _319  and  _320
REMARK  125  A    between atoms: _319  and  _322
REMARK  126  A    between atoms: _322  and  _323
REMARK  127  A    between atoms: _326  and  _328
REMARK  128  A    between atoms: _328  and  _329
REMARK  129  A    between atoms: _328  and  _331
REMARK  130  A    between atoms: _331  and  _332
REMARK  131  A    between atoms: _332  and  _333
REMARK  132  A    between atoms: _333  and  _334
REMARK  133  A    between atoms: _343  and  _345
REMARK  134  A    between atoms: _345  and  _346
REMARK  135  A    between atoms: _345  and  _348
REMARK  136  A    between atoms: _348  and  _349
REMARK  137  A    between atoms: _352  and  _354
REMARK  138  A    between atoms: _354  and  _355
REMARK  139  A    between atoms: _358  and  _360
REMARK  140  A    between atoms: _360  and  _361
REMARK  141  A    between atoms: _360  and  _363
REMARK  142  A    between atoms: _363  and  _364
REMARK  143  A    between atoms: _369  and  _371
REMARK  144  A    between atoms: _371  and  _372
REMARK  145  A    between atoms: _375  and  _377
REMARK  146  A    between atoms: _377  and  _378
REMARK  147  A    between atoms: _377  and  _380
REMARK  148  A    between atoms: _380  and  _381
REMARK  149  A    between atoms: _386  and  _387
REMARK  150  A    between atoms: _389  and  _391
REMARK  151  A    between atoms: _391  and  _392
REMARK  152  A    between atoms: _391  and  _394
REMARK  153  A    between atoms: _394  and  _395
REMARK  154  A    between atoms: _397  and  _399
REMARK  155  A    between atoms: _399  and  _400
REMARK  156  A    between atoms: _399  and  _402
REMARK  157  A    between atoms: _402  and  _403
REMARK  158  A    between atoms: _409  and  _411
REMARK  159  A    between atoms: _411  and  _412
REMARK  160  A    between atoms: _411  and  _414
REMARK  161  A    between atoms: _414  and  _415
REMARK  162  A    between atoms: _421  and  _423
REMARK  163  A    between atoms: _423  and  _424
REMARK  164  A    between atoms: _423  and  _426
REMARK  165  A    between atoms: _426  and  _427
REMARK  166  A    between atoms: _432  and  _434
REMARK  167  A    between atoms: _434  and  _435
REMARK  168  A    between atoms: _437  and  _439
REMARK  169  A    between atoms: _439  and  _440
REMARK  170  A    between atoms: _439  and  _442
REMARK  171  A    between atoms: _445  and  _447
REMARK  172  A    between atoms: _447  and  _448
REMARK  173  A    between atoms: _447  and  _450
REMARK  174  A    between atoms: _450  and  _451
REMARK  175  A    between atoms: _461  and  _463
REMARK  176  A    between atoms: _463  and  _464
REMARK  177  A    between atoms: _467  and  _469
REMARK  178  A    between atoms: _469  and  _470
REMARK  179  A    between atoms: _469  and  _472
REMARK  180  A    between atoms: _472  and  _473
REMARK  181  A    between atoms: _473  and  _474
REMARK  182  A    between atoms: _477  and  _479
REMARK  183  A    between atoms: _479  and  _480
REMARK  184  A    between atoms: _479  and  _482
REMARK  185  A    between atoms: _482  and  _483
REMARK  186  A    between atoms: _485  and  _487
REMARK  187  A    between atoms: _487  and  _488
REMARK  188  A    between atoms: _490  and  _492
REMARK  189  A    between atoms: _492  and  _493
REMARK  190  A    between atoms: _495  and  _497
REMARK  191  A    between atoms: _497  and  _498
REMARK  192  A    between atoms: _497  and  _500
REMARK  193  A    between atoms: _500  and  _501
REMARK  194  A    between atoms: _504  and  _506
REMARK  195  A    between atoms: _506  and  _507
REMARK  196  A    between atoms: _506  and  _509
REMARK  197  A    between atoms: _512  and  _514
REMARK  198  A    between atoms: _514  and  _515
REMARK  199  A    between atoms: _517  and  _519
REMARK  200  A    between atoms: _519  and  _520
REMARK  201  A    between atoms: _523  and  _525
REMARK  202  A    between atoms: _525  and  _526
REMARK  203  A    between atoms: _525  and  _528
REMARK  204  A    between atoms: _528  and  _529
REMARK  205  A    between atoms: _535  and  _536
REMARK  206  A    between atoms: _541  and  _543
REMARK  207  A    between atoms: _543  and  _544
REMARK  208  A    between atoms: _543  and  _546
REMARK  209  A    between atoms: _546  and  _547
REMARK  210  A    between atoms: _550  and  _552
REMARK  211  A    between atoms: _552  and  _553
REMARK  212  A    between atoms: _552  and  _555
REMARK  213  A    between atoms: _555  and  _556
REMARK  214  A    between atoms: _558  and  _560
REMARK  215  A    between atoms: _560  and  _561
REMARK  216  A    between atoms: _560  and  _563
REMARK  217  A    between atoms: _563  and  _564
REMARK  218  A    between atoms: _567  and  _569
REMARK  219  A    between atoms: _569  and  _570
REMARK  220  A    between atoms: _569  and  _572
REMARK  221  A    between atoms: _572  and  _573
REMARK  222  A    between atoms: _578  and  _580
REMARK  223  A    between atoms: _580  and  _581
REMARK  224  A    between atoms: _580  and  _583
REMARK  225  A    between atoms: _583  and  _584
REMARK                            x       y       z     vdW  Elec       q    Type
REMARK                         _______ _______ _______ _____ _____    ______ ____
ROOT
ATOM      1  C   LEU A   1      25.720  -2.094  55.408  0.00  0.00    +0.238 C 
ATOM      2  O   LEU A   1      25.915  -2.354  56.598  0.00  0.00    -0.274 OA
ATOM      3  N   LYS A   2      25.452  -3.020  54.490  0.00  0.00    -0.298 N 
ATOM      4  H   LYS A   2      25.272  -2.718  53.511  0.00  0.00    +0.150 HD
ENDROOT
BRANCH   1   5
ATOM      5  CA  LEU A   1      25.764  -0.655  54.918  0.00  0.00    +0.145 C 
BRANCH   5   6
ATOM      6  N   LEU A   1      26.186  -0.567  53.521  0.00  0.00    -0.238 NA
ATOM      7  H   LEU A   1      25.480  -0.298  52.806  0.00  0.00    +0.142 HD
ENDBRANCH   5   6
BRANCH   5   8
ATOM      8  CB  LEU A   1      24.385  -0.016  55.117  0.00  0.00    +0.026 C 
BRANCH   8   9
ATOM      9  CG  LEU A   1      24.288   1.504  55.264  0.00  0.00    +0.002 C 
ATOM     10  CD2 LEU A   1      24.938   1.983  56.557  0.00  0.00    +0.000 C 
ATOM     11  CD1 LEU A   1      22.826   1.935  55.199  0.00  0.00    +0.000 C 
ENDBRANCH   8   9
ENDBRANCH   5   8
ENDBRANCH   1   5
BRANCH   3  12
ATOM     12  CA  LYS A   2      25.402  -4.448  54.809  0.00  0.00    +0.137 C 
BRANCH  12  13
ATOM     13  C   LYS A   2      26.758  -4.983  55.263  0.00  0.00    +0.227 C 
ATOM     14  O   LYS A   2      26.816  -5.904  56.078  0.00  0.00    -0.286 OA
ENDBRANCH  12  13
BRANCH  12  15
ATOM     15  CB  LYS A   2      24.891  -5.258  53.617  0.00  0.00    +0.028 C 
BRANCH  15  16
ATOM     16  CG  LYS A   2      23.428  -5.023  53.287  0.00  0.00    -0.000 C 
BRANCH  16  17
ATOM     17  CD  LYS A   2      22.852  -6.107  52.372  0.00  0.00    -0.024 C 
BRANCH  17  18
ATOM     18  CE  LYS A   2      23.512  -6.136  50.998  0.00  0.00    -0.086 C 
BRANCH  18  19
ATOM     19  NZ  LYS A   2      23.360  -4.855  50.260  0.00  0.00    +0.380 N 
ATOM     20  HZ1 LYS A   2      23.798  -4.087  50.808  0.00  0.00    -0.089 HD
ATOM     21  HZ2 LYS A   2      22.349  -4.653  50.124  0.00  0.00    -0.089 HD
ATOM     22  HZ3 LYS A   2      23.827  -4.932  49.334  0.00  0.00    -0.089 HD
ENDBRANCH  18  19
ENDBRANCH  17  18
ENDBRANCH  16  17
ENDBRANCH  15  16
ENDBRANCH  12  15
ENDBRANCH   3  12
TORSDOF 11
REMARK  Name = ../refined-set-2016/2w7y/2w7y_pocket.pdb
REMARK  225 active torsions:
REMARK  status: ('A' for Active; 'I' for Inactive)
REMARK    1  A    between atoms: _1  and  _3
REMARK    2  A    between atoms: _3  and  _4
REMARK    3  A    between atoms: _3  and  _6
REMARK    4  A    between atoms: _6  and  _7
REMARK    5  A    between atoms: _12  and  _13
REMARK    6  A    between atoms: _15  and  _17
REMARK    7  A    between atoms: _17  and  _18
REMARK    8  A    between atoms: _17  and  _20
REMARK    9  A    between atoms: _20  and  _21
REMARK   10  A    between atoms: _26  and  _28
REMARK   11  A    between atoms: _28  and  _29
REMARK   12  A    between atoms: _31  and  _33
REMARK   13  A    between atoms: _33  and  _34
REMARK   14  A    between atoms: _33  and  _36
REMARK   15  A    between atoms: _36  and  _37
REMARK   16  A    between atoms: _42  and  _43
REMARK   17  A    between atoms: _45  and  _47
REMARK   18  A    between atoms: _47  and  _48
REMARK   19  A    between atoms: _47  and  _50
REMARK   20  A    between atoms: _50  and  _51
REMARK   21  A    between atoms: _56  and  _58
REMARK   22  A    between atoms: _58  and  _59
REMARK   23  A    between atoms: _58  and  _61
REMARK   24  A    between atoms: _61  and  _62
REMARK   25  A    between atoms: _67  and  _69
REMARK   26  A    between atoms: _69  and  _70
REMARK   27  A    between atoms: _69  and  _72
REMARK   28  A    between atoms: _72  and  _73
REMARK   29  A    between atoms: _83  and  _85
REMARK   30  A    between atoms: _85  and  _86
REMARK   31  A    between atoms: _85  and  _88
REMARK   32  A    between atoms: _91  and  _93
REMARK   33  A    between atoms: _93  and  _94
REMARK   34  A    between atoms: _97  and  _99
REMARK   35  A    between atoms: _99  and  _100
REMARK   36  A    between atoms: _99  and  _102
REMARK   37  A    between atoms: _102  and  _103
REMARK   38  A    between atoms: _103  and  _104
REMARK   39  A    between atoms: _106  and  _108
REMARK   40  A    between atoms: _108  and  _109
REMARK   41  A    between atoms: _108  and  _111
REMARK   42  A    between atoms: _111  and  _112
REMARK   43  A    between atoms: _117  and  _118
REMARK   44  A    between atoms: _120  and  _122
REMARK   45  A    between atoms: _122  and  _123
REMARK   46  A    between atoms: _122  and  _125
REMARK   47  A    between atoms: _128  and  _130
REMARK   48  A    between atoms: _130  and  _131
REMARK   49  A    between atoms: _130  and  _133
REMARK   50  A    between atoms: _133  and  _134
REMARK   51  A    between atoms: _139  and  _141
REMARK   52  A    between atoms: _141  and  _142
REMARK   53  A    between atoms: _144  and  _146
REMARK   54  A    between atoms: _146  and  _147
REMARK   55  A    between atoms: _146  and  _149
REMARK   56  A    between atoms: _149  and  _150
REMARK   57  A    between atoms: _153  and  _155
REMARK   58  A    between atoms: _155  and  _156
REMARK   59  A    between atoms: _155  and  _158
REMARK   60  A    between atoms: _158  and  _159
REMARK   61  A    between atoms: _159  and  _160
REMARK   62  A    between atoms: _160  and  _161
REMARK   63  A    between atoms: _161  and  _162
REMARK   64  A    between atoms: _166  and  _168
REMARK   65  A    between atoms: _168  and  _169
REMARK   66  A    between atoms: _168  and  _171
REMARK   67  A    between atoms: _171  and  _172
REMARK   68  A    between atoms: _175  and  _177
REMARK   69  A    between atoms: _177  and  _178
REMARK   70  A    between atoms: _177  and  _180
REMARK   71  A    between atoms: _180  and  _181
REMARK   72  A    between atoms: _184  and  _186
REMARK   73  A    between atoms: _186  and  _187
REMARK   74  A    between atoms: _190  and  _192
REMARK   75  A    between atoms: _192  and  _193
REMARK   76  A    between atoms: _195  and  _197
REMARK   77  A    between atoms: _197  and  _198
REMARK   78  A    between atoms: _197  and  _200
REMARK   79  A    between atoms: _200  and  _201
REMARK   80  A    between atoms: _206  and  _208
REMARK   81  A    between atoms: _208  and  _209
REMARK   82  A    between atoms: _212  and  _214
REMARK   83  A    between atoms: _214  and  _215
REMARK   84  A    between atoms: _214  and  _217
REMARK   85  A    between atoms: _217  and  _218
REMARK   86  A    between atoms: _223  and  _225
REMARK   87  A    between atoms: _225  and  _226
REMARK   88  A    between atoms: _225  and  _228
REMARK   89  A    between atoms: _228  and  _229
REMARK   90  A    between atoms: _229  and  _230
REMARK   91  A    between atoms: _233  and  _235
REMARK   92  A    between atoms: _235  and  _236
REMARK   93  A    between atoms: _235  and  _238
REMARK   94  A    between atoms: _238  and  _239
REMARK   95  A    between atoms: _239  and  _240
REMARK   96  A    between atoms: _245  and  _247
REMARK   97  A    between atoms: _247  and  _248
REMARK   98  A    between atoms: _247  and  _250
REMARK   99  A    between atoms: _250  and  _251
REMARK  100  A    between atoms: _254  and  _256
REMARK  101  A    between atoms: _256  and  _257
REMARK  102  A    between atoms: _256  and  _259
REMARK  103  A    between atoms: _259  and  _260
REMARK  104  A    between atoms: _266  and  _268
REMARK  105  A    between atoms: _268  and  _269
REMARK  106  A    between atoms: _268  and  _271
REMARK  107  A    between atoms: _271  and  _272
REMARK  108  A    between atoms: _275  and  _277
REMARK  109  A    between atoms: _277  and  _278
REMARK  110  A    between atoms: _277  and  _280
REMARK  111  A    between atoms: _280  and  _281
REMARK  112  A    between atoms: _281  and  _282
REMARK  113  A    between atoms: _284  and  _286
REMARK  114  A    between atoms: _286  and  _287
REMARK  115  A    between atoms: _286  and  _289
REMARK  116  A    between atoms: _289  and  _290
REMARK  117  A    between atoms: _300  and  _302
REMARK  118  A    between atoms: _302  and  _303
REMARK  119  A    between atoms: _302  and  _305
REMARK  120  A    between atoms: _305  and  _306
REMARK  121  A    between atoms: _306  and  _307
REMARK  122  A    between atoms: _311  and  _312
REMARK  123  A    between atoms: _317  and  _319
REMARK  124  A    between atoms: _319  and  _320
REMARK  125  A    between atoms: _319  and  _322
REMARK  126  A    between atoms: _322  and  _323
REMARK  127  A    between atoms: _326  and  _328
REMARK  128  A    between atoms: _328  and  _329
REMARK  129  A    between atoms: _328  and  _331
REMARK  130  A    between atoms: _331  and  _332
REMARK  131  A    between atoms: _332  and  _333
REMARK  132  A    between atoms: _333  and  _334
REMARK  133  A    between atoms: _343  and  _345
REMARK  134  A    between atoms: _345  and  _346
REMARK  135  A    between atoms: _345  and  _348
REMARK  136  A    between atoms: _348  and  _349
REMARK  137  A    between atoms: _352  and  _354
REMARK  138  A    between atoms: _354  and  _355
REMARK  139  A    between atoms: _358  and  _360
REMARK  140  A    between atoms: _360  and  _361
REMARK  141  A    between atoms: _360  and  _363
REMARK  142  A    between atoms: _363  and  _364
REMARK  143  A    between atoms: _369  and  _371
REMARK  144  A    between atoms: _371  and  _372
REMARK  145  A    between atoms: _375  and  _377
REMARK  146  A    between atoms: _377  and  _378
REMARK  147  A    between atoms: _377  and  _380
REMARK  148  A    between atoms: _380  and  _381
REMARK  149  A    between atoms: _386  and  _387
REMARK  150  A    between atoms: _389  and  _391
REMARK  151  A    between atoms: _391  and  _392
REMARK  152  A    between atoms: _391  and  _394
REMARK  153  A    between atoms: _394  and  _395
REMARK  154  A    between atoms: _397  and  _399
REMARK  155  A    between atoms: _399  and  _400
REMARK  156  A    between atoms: _399  and  _402
REMARK  157  A    between atoms: _402  and  _403
REMARK  158  A    between atoms: _409  and  _411
REMARK  159  A    between atoms: _411  and  _412
REMARK  160  A    between atoms: _411  and  _414
REMARK  161  A    between atoms: _414  and  _415
REMARK  162  A    between atoms: _421  and  _423
REMARK  163  A    between atoms: _423  and  _424
REMARK  164  A    between atoms: _423  and  _426
REMARK  165  A    between atoms: _426  and  _427
REMARK  166  A    between atoms: _432  and  _434
REMARK  167  A    between atoms: _434  and  _435
REMARK  168  A    between atoms: _437  and  _439
REMARK  169  A    between atoms: _439  and  _440
REMARK  170  A    between atoms: _439  and  _442
REMARK  171  A    between atoms: _445  and  _447
REMARK  172  A    between atoms: _447  and  _448
REMARK  173  A    between atoms: _447  and  _450
REMARK  174  A    between atoms: _450  and  _451
REMARK  175  A    between atoms: _461  and  _463
REMARK  176  A    between atoms: _463  and  _464
REMARK  177  A    between atoms: _467  and  _469
REMARK  178  A    between atoms: _469  and  _470
REMARK  179  A    between atoms: _469  and  _472
REMARK  180  A    between atoms: _472  and  _473
REMARK  181  A    between atoms: _473  and  _474
REMARK  182  A    between atoms: _477  and  _479
REMARK  183  A    between atoms: _479  and  _480
REMARK  184  A    between atoms: _479  and  _482
REMARK  185  A    between atoms: _482  and  _483
REMARK  186  A    between atoms: _485  and  _487
REMARK  187  A    between atoms: _487  and  _488
REMARK  188  A    between atoms: _490  and  _492
REMARK  189  A    between atoms: _492  and  _493
REMARK  190  A    between atoms: _495  and  _497
REMARK  191  A    between atoms: _497  and  _498
REMARK  192  A    between atoms: _497  and  _500
REMARK  193  A    between atoms: _500  and  _501
REMARK  194  A    between atoms: _504  and  _506
REMARK  195  A    between atoms: _506  and  _507
REMARK  196  A    between atoms: _506  and  _509
REMARK  197  A    between atoms: _512  and  _514
REMARK  198  A    between atoms: _514  and  _515
REMARK  199  A    between atoms: _517  and  _519
REMARK  200  A    between atoms: _519  and  _520
REMARK  201  A    between atoms: _523  and  _525
REMARK  202  A    between atoms: _525  and  _526
REMARK  203  A    between atoms: _525  and  _528
REMARK  204  A    between atoms: _528  and  _529
REMARK  205  A    between atoms: _535  and  _536
REMARK  206  A    between atoms: _541  and  _543
REMARK  207  A    between atoms: _543  and  _544
REMARK  208  A    between atoms: _543  and  _546
REMARK  209  A    between atoms: _546  and  _547
REMARK  210  A    between atoms: _550  and  _552
REMARK  211  A    between atoms: _552  and  _553
REMARK  212  A    between atoms: _552  and  _555
REMARK  213  A    between atoms: _555  and  _556
REMARK  214  A    between atoms: _558  and  _560
REMARK  215  A    between atoms: _560  and  _561
REMARK  216  A    between atoms: _560  and  _563
REMARK  217  A    between atoms: _563  and  _564
REMARK  218  A    between atoms: _567  and  _569
REMARK  219  A    between atoms: _569  and  _570
REMARK  220  A    between atoms: _569  and  _572
REMARK  221  A    between atoms: _572  and  _573
REMARK  222  A    between atoms: _578  and  _580
REMARK  223  A    between atoms: _580  and  _581
REMARK  224  A    between atoms: _580  and  _583
REMARK  225  A    between atoms: _583  and  _584
REMARK                            x       y       z     vdW  Elec       q    Type
REMARK                         _______ _______ _______ _____ _____    ______ ____
ROOT
ATOM      1  C   ALA A   3      17.068   0.863  53.954  0.00  0.00    +0.241 C 
ATOM      2  N   GLY A   4      16.261  -0.089  54.418  0.00  0.00    -0.295 N 
ATOM      3  H   GLY A   4      16.136  -0.180  55.446  0.00  0.00    +0.150 HD
ATOM      4  O   ALA A   3      17.261   1.064  52.752  0.00  0.00    -0.273 OA
ENDROOT
BRANCH   1   5
ATOM      5  CA  ALA A   3      17.765   1.727  55.010  0.00  0.00    +0.149 C 
ATOM      6  CB  ALA A   3      18.884   2.552  54.376  0.00  0.00    +0.031 C 
BRANCH   5   8
ATOM      7  C   LEU A   2      19.127  -0.038  56.069  0.00  0.00    +0.241 C 
ATOM      8  N   ALA A   3      18.271   0.978  56.170  0.00  0.00    -0.297 N 
ATOM      9  H   ALA A   3      17.944   1.256  57.117  0.00  0.00    +0.150 HD
ATOM     10  O   LEU A   2      19.468  -0.533  54.997  0.00  0.00    -0.273 OA
BRANCH   7  11
ATOM     11  CA  LEU A   2      19.693  -0.587  57.375  0.00  0.00    +0.149 C 
BRANCH  11  13
ATOM     12  C   ASP A   1      20.168   1.391  58.723  0.00  0.00    +0.239 C 
ATOM     13  N   LEU A   2      19.465   0.285  58.513  0.00  0.00    -0.297 N 
ATOM     14  H   LEU A   2      18.719   0.032  59.192  0.00  0.00    +0.150 HD
ATOM     15  O   ASP A   1      20.994   1.837  57.924  0.00  0.00    -0.274 OA
BRANCH  12  16
ATOM     16  CA  ASP A   1      19.888   2.090  60.044  0.00  0.00    +0.156 C 
BRANCH  16  17
ATOM     17  N   ASP A   1      21.044   1.890  60.910  0.00  0.00    -0.238 NA
ATOM     18  H   ASP A   1      21.839   2.558  60.849  0.00  0.00    +0.142 HD
ENDBRANCH  16  17
BRANCH  16  19
ATOM     19  CB  ASP A   1      19.579   3.582  59.829  0.00  0.00    +0.140 C 
BRANCH  19  20
ATOM     20  CG  ASP A   1      18.454   3.813  58.811  0.00  0.00    +0.367 C 
ATOM     21  OD2 ASP A   1      17.563   2.943  58.661  0.00  0.00    -0.246 OA
ATOM     22  OD1 ASP A   1      18.471   4.872  58.145  0.00  0.00    -0.246 OA
ENDBRANCH  19  20
ENDBRANCH  16  19
ENDBRANCH  12  16
ENDBRANCH  11  13
BRANCH  11  23
ATOM     23  CB  LEU A   2      19.144  -1.985  57.670  0.00  0.00    +0.029 C 
BRANCH  23  24
ATOM     24  CG  LEU A   2      19.972  -2.801  58.667  0.00  0.00    +0.002 C 
ATOM     25  CD2 LEU A   2      19.266  -4.096  58.997  0.00  0.00    +0.000 C 
ATOM     26  CD1 LEU A   2      21.373  -3.074  58.105  0.00  0.00    +0.000 C 
ENDBRANCH  23  24
ENDBRANCH  11  23
ENDBRANCH   7  11
ENDBRANCH   5   8
ENDBRANCH   1   5
BRANCH   2  27
ATOM     27  CA  GLY A   4      15.543  -1.011  53.539  0.00  0.00    +0.176 C 
BRANCH  27  28
ATOM     28  C   GLY A   4      16.165  -2.397  53.470  0.00  0.00    +0.243 C 
ATOM     29  N   ASN A   5      17.464  -2.482  53.771  0.00  0.00    -0.297 N 
ATOM     30  H   ASN A   5      17.978  -1.614  54.025  0.00  0.00    +0.150 HD
ATOM     31  O   GLY A   4      15.483  -3.369  53.136  0.00  0.00    -0.273 OA
BRANCH  29  32
ATOM     32  CA  ASN A   5      18.189  -3.752  53.756  0.00  0.00    +0.158 C 
BRANCH  32  33
ATOM     33  C   ASN A   5      17.704  -4.690  54.849  0.00  0.00    +0.241 C 
ATOM     34  O   ASN A   5      17.320  -4.243  55.923  0.00  0.00    -0.273 OA
ATOM     35  N   ALA A   6      17.717  -5.989  54.565  0.00  0.00    -0.298 N 
ATOM     36  H   ALA A   6      18.071  -6.300  53.638  0.00  0.00    +0.150 HD
BRANCH  35  37
ATOM     37  CA  ALA A   6      17.248  -6.991  55.520  0.00  0.00    +0.137 C 
ATOM     38  CB  ALA A   6      16.870  -8.281  54.802  0.00  0.00    +0.030 C 
BRANCH  37  39
ATOM     39  C   ALA A   6      18.289  -7.266  56.597  0.00  0.00    +0.227 C 
ATOM     40  O   ALA A   6      19.497  -7.183  56.343  0.00  0.00    -0.286 OA
ENDBRANCH  37  39
ENDBRANCH  35  37
ENDBRANCH  32  33
BRANCH  32  41
ATOM     41  CB  ASN A   5      19.698  -3.528  53.892  0.00  0.00    +0.114 C 
BRANCH  41  42
ATOM     42  CG  ASN A   5      20.302  -2.839  52.681  0.00  0.00    +0.222 C 
ATOM     43  OD1 ASN A   5      20.819  -1.723  52.781  0.00  0.00    -0.275 OA
ATOM     44  ND2 ASN A   5      20.242  -3.501  51.531  0.00  0.00    -0.329 N 
ATOM     45 HD21 ASN A   5      19.796  -4.440  51.494  0.00  0.00    +0.145 HD
ATOM     46 HD22 ASN A   5      20.641  -3.080  50.667  0.00  0.00    +0.145 HD
ENDBRANCH  41  42
ENDBRANCH  32  41
ENDBRANCH  29  32
ENDBRANCH  27  28
ENDBRANCH   2  27
TORSDOF 18
REMARK  Name = ../refined-set-2016/2w7y/2w7y_pocket.pdb
REMARK  225 active torsions:
REMARK  status: ('A' for Active; 'I' for Inactive)
REMARK    1  A    between atoms: _1  and  _3
REMARK    2  A    between atoms: _3  and  _4
REMARK    3  A    between atoms: _3  and  _6
REMARK    4  A    between atoms: _6  and  _7
REMARK    5  A    between atoms: _12  and  _13
REMARK    6  A    between atoms: _15  and  _17
REMARK    7  A    between atoms: _17  and  _18
REMARK    8  A    between atoms: _17  and  _20
REMARK    9  A    between atoms: _20  and  _21
REMARK   10  A    between atoms: _26  and  _28
REMARK   11  A    between atoms: _28  and  _29
REMARK   12  A    between atoms: _31  and  _33
REMARK   13  A    between atoms: _33  and  _34
REMARK   14  A    between atoms: _33  and  _36
REMARK   15  A    between atoms: _36  and  _37
REMARK   16  A    between atoms: _42  and  _43
REMARK   17  A    between atoms: _45  and  _47
REMARK   18  A    between atoms: _47  and  _48
REMARK   19  A    between atoms: _47  and  _50
REMARK   20  A    between atoms: _50  and  _51
REMARK   21  A    between atoms: _56  and  _58
REMARK   22  A    between atoms: _58  and  _59
REMARK   23  A    between atoms: _58  and  _61
REMARK   24  A    between atoms: _61  and  _62
REMARK   25  A    between atoms: _67  and  _69
REMARK   26  A    between atoms: _69  and  _70
REMARK   27  A    between atoms: _69  and  _72
REMARK   28  A    between atoms: _72  and  _73
REMARK   29  A    between atoms: _83  and  _85
REMARK   30  A    between atoms: _85  and  _86
REMARK   31  A    between atoms: _85  and  _88
REMARK   32  A    between atoms: _91  and  _93
REMARK   33  A    between atoms: _93  and  _94
REMARK   34  A    between atoms: _97  and  _99
REMARK   35  A    between atoms: _99  and  _100
REMARK   36  A    between atoms: _99  and  _102
REMARK   37  A    between atoms: _102  and  _103
REMARK   38  A    between atoms: _103  and  _104
REMARK   39  A    between atoms: _106  and  _108
REMARK   40  A    between atoms: _108  and  _109
REMARK   41  A    between atoms: _108  and  _111
REMARK   42  A    between atoms: _111  and  _112
REMARK   43  A    between atoms: _117  and  _118
REMARK   44  A    between atoms: _120  and  _122
REMARK   45  A    between atoms: _122  and  _123
REMARK   46  A    between atoms: _122  and  _125
REMARK   47  A    between atoms: _128  and  _130
REMARK   48  A    between atoms: _130  and  _131
REMARK   49  A    between atoms: _130  and  _133
REMARK   50  A    between atoms: _133  and  _134
REMARK   51  A    between atoms: _139  and  _141
REMARK   52  A    between atoms: _141  and  _142
REMARK   53  A    between atoms: _144  and  _146
REMARK   54  A    between atoms: _146  and  _147
REMARK   55  A    between atoms: _146  and  _149
REMARK   56  A    between atoms: _149  and  _150
REMARK   57  A    between atoms: _153  and  _155
REMARK   58  A    between atoms: _155  and  _156
REMARK   59  A    between atoms: _155  and  _158
REMARK   60  A    between atoms: _158  and  _159
REMARK   61  A    between atoms: _159  and  _160
REMARK   62  A    between atoms: _160  and  _161
REMARK   63  A    between atoms: _161  and  _162
REMARK   64  A    between atoms: _166  and  _168
REMARK   65  A    between atoms: _168  and  _169
REMARK   66  A    between atoms: _168  and  _171
REMARK   67  A    between atoms: _171  and  _172
REMARK   68  A    between atoms: _175  and  _177
REMARK   69  A    between atoms: _177  and  _178
REMARK   70  A    between atoms: _177  and  _180
REMARK   71  A    between atoms: _180  and  _181
REMARK   72  A    between atoms: _184  and  _186
REMARK   73  A    between atoms: _186  and  _187
REMARK   74  A    between atoms: _190  and  _192
REMARK   75  A    between atoms: _192  and  _193
REMARK   76  A    between atoms: _195  and  _197
REMARK   77  A    between atoms: _197  and  _198
REMARK   78  A    between atoms: _197  and  _200
REMARK   79  A    between atoms: _200  and  _201
REMARK   80  A    between atoms: _206  and  _208
REMARK   81  A    between atoms: _208  and  _209
REMARK   82  A    between atoms: _212  and  _214
REMARK   83  A    between atoms: _214  and  _215
REMARK   84  A    between atoms: _214  and  _217
REMARK   85  A    between atoms: _217  and  _218
REMARK   86  A    between atoms: _223  and  _225
REMARK   87  A    between atoms: _225  and  _226
REMARK   88  A    between atoms: _225  and  _228
REMARK   89  A    between atoms: _228  and  _229
REMARK   90  A    between atoms: _229  and  _230
REMARK   91  A    between atoms: _233  and  _235
REMARK   92  A    between atoms: _235  and  _236
REMARK   93  A    between atoms: _235  and  _238
REMARK   94  A    between atoms: _238  and  _239
REMARK   95  A    between atoms: _239  and  _240
REMARK   96  A    between atoms: _245  and  _247
REMARK   97  A    between atoms: _247  and  _248
REMARK   98  A    between atoms: _247  and  _250
REMARK   99  A    between atoms: _250  and  _251
REMARK  100  A    between atoms: _254  and  _256
REMARK  101  A    between atoms: _256  and  _257
REMARK  102  A    between atoms: _256  and  _259
REMARK  103  A    between atoms: _259  and  _260
REMARK  104  A    between atoms: _266  and  _268
REMARK  105  A    between atoms: _268  and  _269
REMARK  106  A    between atoms: _268  and  _271
REMARK  107  A    between atoms: _271  and  _272
REMARK  108  A    between atoms: _275  and  _277
REMARK  109  A    between atoms: _277  and  _278
REMARK  110  A    between atoms: _277  and  _280
REMARK  111  A    between atoms: _280  and  _281
REMARK  112  A    between atoms: _281  and  _282
REMARK  113  A    between atoms: _284  and  _286
REMARK  114  A    between atoms: _286  and  _287
REMARK  115  A    between atoms: _286  and  _289
REMARK  116  A    between atoms: _289  and  _290
REMARK  117  A    between atoms: _300  and  _302
REMARK  118  A    between atoms: _302  and  _303
REMARK  119  A    between atoms: _302  and  _305
REMARK  120  A    between atoms: _305  and  _306
REMARK  121  A    between atoms: _306  and  _307
REMARK  122  A    between atoms: _311  and  _312
REMARK  123  A    between atoms: _317  and  _319
REMARK  124  A    between atoms: _319  and  _320
REMARK  125  A    between atoms: _319  and  _322
REMARK  126  A    between atoms: _322  and  _323
REMARK  127  A    between atoms: _326  and  _328
REMARK  128  A    between atoms: _328  and  _329
REMARK  129  A    between atoms: _328  and  _331
REMARK  130  A    between atoms: _331  and  _332
REMARK  131  A    between atoms: _332  and  _333
REMARK  132  A    between atoms: _333  and  _334
REMARK  133  A    between atoms: _343  and  _345
REMARK  134  A    between atoms: _345  and  _346
REMARK  135  A    between atoms: _345  and  _348
REMARK  136  A    between atoms: _348  and  _349
REMARK  137  A    between atoms: _352  and  _354
REMARK  138  A    between atoms: _354  and  _355
REMARK  139  A    between atoms: _358  and  _360
REMARK  140  A    between atoms: _360  and  _361
REMARK  141  A    between atoms: _360  and  _363
REMARK  142  A    between atoms: _363  and  _364
REMARK  143  A    between atoms: _369  and  _371
REMARK  144  A    between atoms: _371  and  _372
REMARK  145  A    between atoms: _375  and  _377
REMARK  146  A    between atoms: _377  and  _378
REMARK  147  A    between atoms: _377  and  _380
REMARK  148  A    between atoms: _380  and  _381
REMARK  149  A    between atoms: _386  and  _387
REMARK  150  A    between atoms: _389  and  _391
REMARK  151  A    between atoms: _391  and  _392
REMARK  152  A    between atoms: _391  and  _394
REMARK  153  A    between atoms: _394  and  _395
REMARK  154  A    between atoms: _397  and  _399
REMARK  155  A    between atoms: _399  and  _400
REMARK  156  A    between atoms: _399  and  _402
REMARK  157  A    between atoms: _402  and  _403
REMARK  158  A    between atoms: _409  and  _411
REMARK  159  A    between atoms: _411  and  _412
REMARK  160  A    between atoms: _411  and  _414
REMARK  161  A    between atoms: _414  and  _415
REMARK  162  A    between atoms: _421  and  _423
REMARK  163  A    between atoms: _423  and  _424
REMARK  164  A    between atoms: _423  and  _426
REMARK  165  A    between atoms: _426  and  _427
REMARK  166  A    between atoms: _432  and  _434
REMARK  167  A    between atoms: _434  and  _435
REMARK  168  A    between atoms: _437  and  _439
REMARK  169  A    between atoms: _439  and  _440
REMARK  170  A    between atoms: _439  and  _442
REMARK  171  A    between atoms: _445  and  _447
REMARK  172  A    between atoms: _447  and  _448
REMARK  173  A    between atoms: _447  and  _450
REMARK  174  A    between atoms: _450  and  _451
REMARK  175  A    between atoms: _461  and  _463
REMARK  176  A    between atoms: _463  and  _464
REMARK  177  A    between atoms: _467  and  _469
REMARK  178  A    between atoms: _469  and  _470
REMARK  179  A    between atoms: _469  and  _472
REMARK  180  A    between atoms: _472  and  _473
REMARK  181  A    between atoms: _473  and  _474
REMARK  182  A    between atoms: _477  and  _479
REMARK  183  A    between atoms: _479  and  _480
REMARK  184  A    between atoms: _479  and  _482
REMARK  185  A    between atoms: _482  and  _483
REMARK  186  A    between atoms: _485  and  _487
REMARK  187  A    between atoms: _487  and  _488
REMARK  188  A    between atoms: _490  and  _492
REMARK  189  A    between atoms: _492  and  _493
REMARK  190  A    between atoms: _495  and  _497
REMARK  191  A    between atoms: _497  and  _498
REMARK  192  A    between atoms: _497  and  _500
REMARK  193  A    between atoms: _500  and  _501
REMARK  194  A    between atoms: _504  and  _506
REMARK  195  A    between atoms: _506  and  _507
REMARK  196  A    between atoms: _506  and  _509
REMARK  197  A    between atoms: _512  and  _514
REMARK  198  A    between atoms: _514  and  _515
REMARK  199  A    between atoms: _517  and  _519
REMARK  200  A    between atoms: _519  and  _520
REMARK  201  A    between atoms: _523  and  _525
REMARK  202  A    between atoms: _525  and  _526
REMARK  203  A    between atoms: _525  and  _528
REMARK  204  A    between atoms: _528  and  _529
REMARK  205  A    between atoms: _535  and  _536
REMARK  206  A    between atoms: _541  and  _543
REMARK  207  A    between atoms: _543  and  _544
REMARK  208  A    between atoms: _543  and  _546
REMARK  209  A    between atoms: _546  and  _547
REMARK  210  A    between atoms: _550  and  _552
REMARK  211  A    between atoms: _552  and  _553
REMARK  212  A    between atoms: _552  and  _555
REMARK  213  A    between atoms: _555  and  _556
REMARK  214  A    between atoms: _558  and  _560
REMARK  215  A    between atoms: _560  and  _561
REMARK  216  A    between atoms: _560  and  _563
REMARK  217  A    between atoms: _563  and  _564
REMARK  218  A    between atoms: _567  and  _569
REMARK  219  A    between atoms: _569  and  _570
REMARK  220  A    between atoms: _569  and  _572
REMARK  221  A    between atoms: _572  and  _573
REMARK  222  A    between atoms: _578  and  _580
REMARK  223  A    between atoms: _580  and  _581
REMARK  224  A    between atoms: _580  and  _583
REMARK  225  A    between atoms: _583  and  _584
REMARK                            x       y       z     vdW  Elec       q    Type
REMARK                         _______ _______ _______ _____ _____    ______ ____
ROOT
ATOM      1  CA  LEU A   4       8.224   2.781  54.657  0.00  0.00    +0.000 C 
ENDROOT
BRANCH   1   4
ATOM      2  C   GLN A   3      10.066   4.035  55.626  0.00  0.00    +0.000 C 
ATOM      3  O   GLN A   3      10.833   3.083  55.522  0.00  0.00    +0.000 OA
ATOM      4  N   LEU A   4       8.801   3.990  55.227  0.00  0.00    +0.000 N 
ATOM      5  H   LEU A   4       8.208   4.839  55.324  0.00  0.00    +0.000 HD
BRANCH   2   6
ATOM      6  CA  GLN A   3      10.550   5.341  56.226  0.00  0.00    +0.000 C 
BRANCH   6   9
ATOM      7  C   GLU A   2      10.594   5.521  58.666  0.00  0.00    +0.000 C 
ATOM      8  O   GLU A   2       9.681   6.345  58.697  0.00  0.00    +0.000 OA
ATOM      9  N   GLN A   3      11.112   5.049  57.536  0.00  0.00    +0.000 N 
ATOM     10  H   GLN A   3      11.956   4.444  57.591  0.00  0.00    +0.000 HD
BRANCH   7  11
ATOM     11  CA  GLU A   2      11.212   4.996  59.965  0.00  0.00    +0.000 C 
BRANCH  11  13
ATOM     12  C   HIS A   1      11.348   2.585  59.488  0.00  0.00    +0.000 C 
ATOM     13  N   GLU A   2      11.950   3.731  59.814  0.00  0.00    +0.000 N 
ATOM     14  H   GLU A   2      12.979   3.730  59.967  0.00  0.00    +0.000 HD
ATOM     15  O   HIS A   1      10.125   2.488  59.350  0.00  0.00    +0.000 OA
BRANCH  12  16
ATOM     16  CA  HIS A   1      12.250   1.360  59.318  0.00  0.00    +0.000 C 
BRANCH  16  17
ATOM     17  N   HIS A   1      11.927   0.378  60.343  0.00  0.00    +0.000 NA
ATOM     18  H   HIS A   1      11.200  -0.337  60.139  0.00  0.00    +0.000 HD
ENDBRANCH  16  17
BRANCH  16  19
ATOM     19  CB  HIS A   1      12.080   0.718  57.935  0.00  0.00    +0.000 C 
BRANCH  19  20
ATOM     20  CG  HIS A   1      12.845   1.392  56.836  0.00  0.00    +0.000 A 
ATOM     21  CD2 HIS A   1      13.813   2.339  56.863  0.00  0.00    +0.000 A 
ATOM     22  NE2 HIS A   1      14.162   2.602  55.559  0.00  0.00    +0.000 NA
ATOM     23  CE1 HIS A   1      13.436   1.843  54.759  0.00  0.00    +0.000 A 
ATOM     24  ND1 HIS A   1      12.629   1.107  55.503  0.00  0.00    +0.000 NA
ENDBRANCH  19  20
ENDBRANCH  16  19
ENDBRANCH  12  16
ENDBRANCH  11  13
BRANCH  11  25
ATOM     25  CB  GLU A   2      12.069   6.090  60.628  0.00  0.00    +0.000 C 
BRANCH  25  26
ATOM     26  CG  GLU A   2      13.549   5.785  60.748  0.00  0.00    +0.000 C 
BRANCH  26  27
ATOM     27  CD  GLU A   2      14.423   6.419  59.683  0.00  0.00    +0.000 C 
ATOM     28  OE2 GLU A   2      15.639   6.519  59.948  0.00  0.00    +0.000 OA
ATOM     29  OE1 GLU A   2      13.938   6.804  58.598  0.00  0.00    +0.000 OA
ENDBRANCH  26  27
ENDBRANCH  25  26
ENDBRANCH  11  25
ENDBRANCH   7  11
ENDBRANCH   6   9
BRANCH   6  30
ATOM     30  CB  GLN A   3      11.619   5.916  55.311  0.00  0.00    +0.000 C 
BRANCH  30  31
ATOM     31  CG  GLN A   3      12.127   7.277  55.688  0.00  0.00    +0.000 C 
BRANCH  31  32
ATOM     32  CD  GLN A   3      13.429   7.607  54.996  0.00  0.00    +0.000 C 
ATOM     33  OE1 GLN A   3      14.436   7.830  55.652  0.00  0.00    +0.000 OA
ATOM     34  NE2 GLN A   3      13.419   7.631  53.665  0.00  0.00    +0.000 N 
ATOM     35 HE21 GLN A   3      12.538   7.435  53.148  0.00  0.00    +0.000 HD
ATOM     36 HE22 GLN A   3      14.292   7.846  53.142  0.00  0.00    +0.000 HD
ENDBRANCH  31  32
ENDBRANCH  30  31
ENDBRANCH   6  30
ENDBRANCH   2   6
ENDBRANCH   1   4
BRANCH   1  37
ATOM     37  C   LEU A   4       8.713   2.501  53.238  0.00  0.00    +0.000 C 
ATOM     38  N   PHE A   5       8.914   1.220  52.938  0.00  0.00    +0.000 N 
ATOM     39  H   PHE A   5       8.772   0.504  53.679  0.00  0.00    +0.000 HD
ATOM     40  O   LEU A   4       8.899   3.418  52.441  0.00  0.00    +0.000 OA
BRANCH  38  41
ATOM     41  CA  PHE A   5       9.325   0.783  51.611  0.00  0.00    +0.000 C 
BRANCH  41  42
ATOM     42  C   PHE A   5       8.110   0.733  50.683  0.00  0.00    +0.000 C 
ATOM     43  N   THR A   6       7.501   1.901  50.499  0.00  0.00    +0.000 N 
ATOM     44  H   THR A   6       7.903   2.742  50.961  0.00  0.00    +0.000 HD
ATOM     45  O   PHE A   5       7.738  -0.323  50.158  0.00  0.00    +0.000 OA
BRANCH  43  46
ATOM     46  CA  THR A   6       6.305   2.069  49.689  0.00  0.00    +0.000 C 
BRANCH  46  47
ATOM     47  C   THR A   6       6.755   2.332  48.260  0.00  0.00    +0.000 C 
ATOM     48  O   THR A   6       7.364   3.364  47.973  0.00  0.00    +0.000 OA
ATOM     49  N   UNK A   7       6.464   1.387  47.371  0.00  0.00    +0.000 N 
ATOM     50  H   UNK A   7       5.826   0.611  47.638  0.00  0.00    +0.000 HD
BRANCH  49  51
ATOM     51  C   UNK A   7       7.028   1.424  46.024  0.00  0.00    +0.000 C 
BRANCH  51  52
ATOM     52  C   UNK A   7       6.073   1.079  44.873  0.00  0.00    +0.000 C 
ATOM     53  O   UNK A   7       5.591  -0.053  44.760  0.00  0.00    +0.000 OA
ENDBRANCH  51  52
BRANCH  51  54
ATOM     54  C   UNK A   7       8.280   0.544  45.967  0.00  0.00    +0.000 C 
BRANCH  54  55
ATOM     55  C   UNK A   7       8.765   0.233  44.568  0.00  0.00    +0.000 C 
BRANCH  55  56
ATOM     56 SE   UNK A   7      10.595  -0.396  44.563  0.00  0.00    +0.000 Se
ATOM     57  C   UNK A   7      10.460  -1.805  45.882  0.00  0.00    +0.000 C 
ENDBRANCH  55  56
ENDBRANCH  54  55
ENDBRANCH  51  54
ENDBRANCH  49  51
ENDBRANCH  46  47
BRANCH  46  58
ATOM     58  CB  THR A   6       5.446   3.236  50.234  0.00  0.00    +0.000 C 
ATOM     59  CG2 THR A   6       4.111   3.361  49.487  0.00  0.00    +0.000 C 
BRANCH  58  60
ATOM     60  OG1 THR A   6       5.198   3.021  51.627  0.00  0.00    +0.000 OA
ATOM     61  HG1 THR A   6       4.714   2.165  51.747  0.00  0.00    +0.000 HD
ENDBRANCH  58  60
ENDBRANCH  46  58
ENDBRANCH  43  46
ENDBRANCH  41  42
BRANCH  41  62
ATOM     62  CB  PHE A   5      10.037  -0.573  51.676  0.00  0.00    +0.000 C 
BRANCH  62  63
ATOM     63  CG  PHE A   5      11.193  -0.689  50.723  0.00  0.00    +0.000 A 
ATOM     64  CD2 PHE A   5      12.478  -0.344  51.129  0.00  0.00    +0.000 A 
ATOM     65  CE2 PHE A   5      13.553  -0.435  50.251  0.00  0.00    +0.000 A 
ATOM     66  CZ  PHE A   5      13.346  -0.867  48.949  0.00  0.00    +0.000 A 
ATOM     67  CE1 PHE A   5      12.067  -1.211  48.535  0.00  0.00    +0.000 A 
ATOM     68  CD1 PHE A   5      10.997  -1.117  49.414  0.00  0.00    +0.000 A 
ENDBRANCH  62  63
ENDBRANCH  41  62
ENDBRANCH  38  41
ENDBRANCH   1  37
BRANCH   1  69
ATOM     69  CB  LEU A   4       6.697   2.864  54.690  0.00  0.00    +0.000 C 
BRANCH  69  70
ATOM     70  CG  LEU A   4       5.920   2.170  55.813  0.00  0.00    +0.000 C 
ATOM     71  CD2 LEU A   4       6.737   1.913  57.084  0.00  0.00    +0.000 C 
ATOM     72  CD1 LEU A   4       4.657   2.952  56.119  0.00  0.00    +0.000 C 
ENDBRANCH  69  70
ENDBRANCH   1  69
TORSDOF 31
REMARK  Name = ../refined-set-2016/2w7y/2w7y_pocket.pdb
REMARK  225 active torsions:
REMARK  status: ('A' for Active; 'I' for Inactive)
REMARK    1  A    between atoms: _1  and  _3
REMARK    2  A    between atoms: _3  and  _4
REMARK    3  A    between atoms: _3  and  _6
REMARK    4  A    between atoms: _6  and  _7
REMARK    5  A    between atoms: _12  and  _13
REMARK    6  A    between atoms: _15  and  _17
REMARK    7  A    between atoms: _17  and  _18
REMARK    8  A    between atoms: _17  and  _20
REMARK    9  A    between atoms: _20  and  _21
REMARK   10  A    between atoms: _26  and  _28
REMARK   11  A    between atoms: _28  and  _29
REMARK   12  A    between atoms: _31  and  _33
REMARK   13  A    between atoms: _33  and  _34
REMARK   14  A    between atoms: _33  and  _36
REMARK   15  A    between atoms: _36  and  _37
REMARK   16  A    between atoms: _42  and  _43
REMARK   17  A    between atoms: _45  and  _47
REMARK   18  A    between atoms: _47  and  _48
REMARK   19  A    between atoms: _47  and  _50
REMARK   20  A    between atoms: _50  and  _51
REMARK   21  A    between atoms: _56  and  _58
REMARK   22  A    between atoms: _58  and  _59
REMARK   23  A    between atoms: _58  and  _61
REMARK   24  A    between atoms: _61  and  _62
REMARK   25  A    between atoms: _67  and  _69
REMARK   26  A    between atoms: _69  and  _70
REMARK   27  A    between atoms: _69  and  _72
REMARK   28  A    between atoms: _72  and  _73
REMARK   29  A    between atoms: _83  and  _85
REMARK   30  A    between atoms: _85  and  _86
REMARK   31  A    between atoms: _85  and  _88
REMARK   32  A    between atoms: _91  and  _93
REMARK   33  A    between atoms: _93  and  _94
REMARK   34  A    between atoms: _97  and  _99
REMARK   35  A    between atoms: _99  and  _100
REMARK   36  A    between atoms: _99  and  _102
REMARK   37  A    between atoms: _102  and  _103
REMARK   38  A    between atoms: _103  and  _104
REMARK   39  A    between atoms: _106  and  _108
REMARK   40  A    between atoms: _108  and  _109
REMARK   41  A    between atoms: _108  and  _111
REMARK   42  A    between atoms: _111  and  _112
REMARK   43  A    between atoms: _117  and  _118
REMARK   44  A    between atoms: _120  and  _122
REMARK   45  A    between atoms: _122  and  _123
REMARK   46  A    between atoms: _122  and  _125
REMARK   47  A    between atoms: _128  and  _130
REMARK   48  A    between atoms: _130  and  _131
REMARK   49  A    between atoms: _130  and  _133
REMARK   50  A    between atoms: _133  and  _134
REMARK   51  A    between atoms: _139  and  _141
REMARK   52  A    between atoms: _141  and  _142
REMARK   53  A    between atoms: _144  and  _146
REMARK   54  A    between atoms: _146  and  _147
REMARK   55  A    between atoms: _146  and  _149
REMARK   56  A    between atoms: _149  and  _150
REMARK   57  A    between atoms: _153  and  _155
REMARK   58  A    between atoms: _155  and  _156
REMARK   59  A    between atoms: _155  and  _158
REMARK   60  A    between atoms: _158  and  _159
REMARK   61  A    between atoms: _159  and  _160
REMARK   62  A    between atoms: _160  and  _161
REMARK   63  A    between atoms: _161  and  _162
REMARK   64  A    between atoms: _166  and  _168
REMARK   65  A    between atoms: _168  and  _169
REMARK   66  A    between atoms: _168  and  _171
REMARK   67  A    between atoms: _171  and  _172
REMARK   68  A    between atoms: _175  and  _177
REMARK   69  A    between atoms: _177  and  _178
REMARK   70  A    between atoms: _177  and  _180
REMARK   71  A    between atoms: _180  and  _181
REMARK   72  A    between atoms: _184  and  _186
REMARK   73  A    between atoms: _186  and  _187
REMARK   74  A    between atoms: _190  and  _192
REMARK   75  A    between atoms: _192  and  _193
REMARK   76  A    between atoms: _195  and  _197
REMARK   77  A    between atoms: _197  and  _198
REMARK   78  A    between atoms: _197  and  _200
REMARK   79  A    between atoms: _200  and  _201
REMARK   80  A    between atoms: _206  and  _208
REMARK   81  A    between atoms: _208  and  _209
REMARK   82  A    between atoms: _212  and  _214
REMARK   83  A    between atoms: _214  and  _215
REMARK   84  A    between atoms: _214  and  _217
REMARK   85  A    between atoms: _217  and  _218
REMARK   86  A    between atoms: _223  and  _225
REMARK   87  A    between atoms: _225  and  _226
REMARK   88  A    between atoms: _225  and  _228
REMARK   89  A    between atoms: _228  and  _229
REMARK   90  A    between atoms: _229  and  _230
REMARK   91  A    between atoms: _233  and  _235
REMARK   92  A    between atoms: _235  and  _236
REMARK   93  A    between atoms: _235  and  _238
REMARK   94  A    between atoms: _238  and  _239
REMARK   95  A    between atoms: _239  and  _240
REMARK   96  A    between atoms: _245  and  _247
REMARK   97  A    between atoms: _247  and  _248
REMARK   98  A    between atoms: _247  and  _250
REMARK   99  A    between atoms: _250  and  _251
REMARK  100  A    between atoms: _254  and  _256
REMARK  101  A    between atoms: _256  and  _257
REMARK  102  A    between atoms: _256  and  _259
REMARK  103  A    between atoms: _259  and  _260
REMARK  104  A    between atoms: _266  and  _268
REMARK  105  A    between atoms: _268  and  _269
REMARK  106  A    between atoms: _268  and  _271
REMARK  107  A    between atoms: _271  and  _272
REMARK  108  A    between atoms: _275  and  _277
REMARK  109  A    between atoms: _277  and  _278
REMARK  110  A    between atoms: _277  and  _280
REMARK  111  A    between atoms: _280  and  _281
REMARK  112  A    between atoms: _281  and  _282
REMARK  113  A    between atoms: _284  and  _286
REMARK  114  A    between atoms: _286  and  _287
REMARK  115  A    between atoms: _286  and  _289
REMARK  116  A    between atoms: _289  and  _290
REMARK  117  A    between atoms: _300  and  _302
REMARK  118  A    between atoms: _302  and  _303
REMARK  119  A    between atoms: _302  and  _305
REMARK  120  A    between atoms: _305  and  _306
REMARK  121  A    between atoms: _306  and  _307
REMARK  122  A    between atoms: _311  and  _312
REMARK  123  A    between atoms: _317  and  _319
REMARK  124  A    between atoms: _319  and  _320
REMARK  125  A    between atoms: _319  and  _322
REMARK  126  A    between atoms: _322  and  _323
REMARK  127  A    between atoms: _326  and  _328
REMARK  128  A    between atoms: _328  and  _329
REMARK  129  A    between atoms: _328  and  _331
REMARK  130  A    between atoms: _331  and  _332
REMARK  131  A    between atoms: _332  and  _333
REMARK  132  A    between atoms: _333  and  _334
REMARK  133  A    between atoms: _343  and  _345
REMARK  134  A    between atoms: _345  and  _346
REMARK  135  A    between atoms: _345  and  _348
REMARK  136  A    between atoms: _348  and  _349
REMARK  137  A    between atoms: _352  and  _354
REMARK  138  A    between atoms: _354  and  _355
REMARK  139  A    between atoms: _358  and  _360
REMARK  140  A    between atoms: _360  and  _361
REMARK  141  A    between atoms: _360  and  _363
REMARK  142  A    between atoms: _363  and  _364
REMARK  143  A    between atoms: _369  and  _371
REMARK  144  A    between atoms: _371  and  _372
REMARK  145  A    between atoms: _375  and  _377
REMARK  146  A    between atoms: _377  and  _378
REMARK  147  A    between atoms: _377  and  _380
REMARK  148  A    between atoms: _380  and  _381
REMARK  149  A    between atoms: _386  and  _387
REMARK  150  A    between atoms: _389  and  _391
REMARK  151  A    between atoms: _391  and  _392
REMARK  152  A    between atoms: _391  and  _394
REMARK  153  A    between atoms: _394  and  _395
REMARK  154  A    between atoms: _397  and  _399
REMARK  155  A    between atoms: _399  and  _400
REMARK  156  A    between atoms: _399  and  _402
REMARK  157  A    between atoms: _402  and  _403
REMARK  158  A    between atoms: _409  and  _411
REMARK  159  A    between atoms: _411  and  _412
REMARK  160  A    between atoms: _411  and  _414
REMARK  161  A    between atoms: _414  and  _415
REMARK  162  A    between atoms: _421  and  _423
REMARK  163  A    between atoms: _423  and  _424
REMARK  164  A    between atoms: _423  and  _426
REMARK  165  A    between atoms: _426  and  _427
REMARK  166  A    between atoms: _432  and  _434
REMARK  167  A    between atoms: _434  and  _435
REMARK  168  A    between atoms: _437  and  _439
REMARK  169  A    between atoms: _439  and  _440
REMARK  170  A    between atoms: _439  and  _442
REMARK  171  A    between atoms: _445  and  _447
REMARK  172  A    between atoms: _447  and  _448
REMARK  173  A    between atoms: _447  and  _450
REMARK  174  A    between atoms: _450  and  _451
REMARK  175  A    between atoms: _461  and  _463
REMARK  176  A    between atoms: _463  and  _464
REMARK  177  A    between atoms: _467  and  _469
REMARK  178  A    between atoms: _469  and  _470
REMARK  179  A    between atoms: _469  and  _472
REMARK  180  A    between atoms: _472  and  _473
REMARK  181  A    between atoms: _473  and  _474
REMARK  182  A    between atoms: _477  and  _479
REMARK  183  A    between atoms: _479  and  _480
REMARK  184  A    between atoms: _479  and  _482
REMARK  185  A    between atoms: _482  and  _483
REMARK  186  A    between atoms: _485  and  _487
REMARK  187  A    between atoms: _487  and  _488
REMARK  188  A    between atoms: _490  and  _492
REMARK  189  A    between atoms: _492  and  _493
REMARK  190  A    between atoms: _495  and  _497
REMARK  191  A    between atoms: _497  and  _498
REMARK  192  A    between atoms: _497  and  _500
REMARK  193  A    between atoms: _500  and  _501
REMARK  194  A    between atoms: _504  and  _506
REMARK  195  A    between atoms: _506  and  _507
REMARK  196  A    between atoms: _506  and  _509
REMARK  197  A    between atoms: _512  and  _514
REMARK  198  A    between atoms: _514  and  _515
REMARK  199  A    between atoms: _517  and  _519
REMARK  200  A    between atoms: _519  and  _520
REMARK  201  A    between atoms: _523  and  _525
REMARK  202  A    between atoms: _525  and  _526
REMARK  203  A    between atoms: _525  and  _528
REMARK  204  A    between atoms: _528  and  _529
REMARK  205  A    between atoms: _535  and  _536
REMARK  206  A    between atoms: _541  and  _543
REMARK  207  A    between atoms: _543  and  _544
REMARK  208  A    between atoms: _543  and  _546
REMARK  209  A    between atoms: _546  and  _547
REMARK  210  A    between atoms: _550  and  _552
REMARK  211  A    between atoms: _552  and  _553
REMARK  212  A    between atoms: _552  and  _555
REMARK  213  A    between atoms: _555  and  _556
REMARK  214  A    between atoms: _558  and  _560
REMARK  215  A    between atoms: _560  and  _561
REMARK  216  A    between atoms: _560  and  _563
REMARK  217  A    between atoms: _563  and  _564
REMARK  218  A    between atoms: _567  and  _569
REMARK  219  A    between atoms: _569  and  _570
REMARK  220  A    between atoms: _569  and  _572
REMARK  221  A    between atoms: _572  and  _573
REMARK  222  A    between atoms: _578  and  _580
REMARK  223  A    between atoms: _580  and  _581
REMARK  224  A    between atoms: _580  and  _583
REMARK  225  A    between atoms: _583  and  _584
REMARK                            x       y       z     vdW  Elec       q    Type
REMARK                         _______ _______ _______ _____ _____    ______ ____
ROOT
ATOM      1  CG  TRP A   1       8.858   7.327  39.652  0.00  0.00    -0.002 A 
ATOM      2  CD1 TRP A   1       9.445   6.556  40.617  0.00  0.00    +0.068 A 
ATOM      3  NE1 TRP A   1       9.148   7.049  41.863  0.00  0.00    -0.352 N 
ATOM      4  HE1 TRP A   1       9.475   6.648  42.765  0.00  0.00    +0.166 HD
ATOM      5  CE2 TRP A   1       8.351   8.154  41.727  0.00  0.00    +0.056 A 
ATOM      6  CZ2 TRP A   1       7.793   8.993  42.702  0.00  0.00    +0.017 A 
ATOM      7  CH2 TRP A   1       7.029  10.049  42.267  0.00  0.00    +0.001 A 
ATOM      8  CZ3 TRP A   1       6.809  10.280  40.895  0.00  0.00    +0.000 A 
ATOM      9  CE3 TRP A   1       7.365   9.451  39.929  0.00  0.00    +0.001 A 
ATOM     10  CD2 TRP A   1       8.149   8.363  40.343  0.00  0.00    +0.013 A 
ENDROOT
BRANCH   1  11
ATOM     11  CB  TRP A   1       8.940   7.128  38.163  0.00  0.00    +0.053 C 
BRANCH  11  12
ATOM     12  CA  TRP A   1       7.848   6.207  37.615  0.00  0.00    +0.137 C 
BRANCH  12  13
ATOM     13  N   TRP A   1       7.909   4.889  38.242  0.00  0.00    -0.239 NA
ATOM     14  H   TRP A   1       8.706   4.259  38.020  0.00  0.00    +0.142 HD
ENDBRANCH  12  13
BRANCH  12  15
ATOM     15  C   TRP A   1       7.958   6.089  36.103  0.00  0.00    +0.224 C 
ATOM     16  O   TRP A   1       8.653   5.212  35.595  0.00  0.00    -0.287 OA
ENDBRANCH  12  15
ENDBRANCH  11  12
ENDBRANCH   1  11
TORSDOF 4
REMARK  Name = ../refined-set-2016/2w7y/2w7y_pocket.pdb
REMARK  225 active torsions:
REMARK  status: ('A' for Active; 'I' for Inactive)
REMARK    1  A    between atoms: _1  and  _3
REMARK    2  A    between atoms: _3  and  _4
REMARK    3  A    between atoms: _3  and  _6
REMARK    4  A    between atoms: _6  and  _7
REMARK    5  A    between atoms: _12  and  _13
REMARK    6  A    between atoms: _15  and  _17
REMARK    7  A    between atoms: _17  and  _18
REMARK    8  A    between atoms: _17  and  _20
REMARK    9  A    between atoms: _20  and  _21
REMARK   10  A    between atoms: _26  and  _28
REMARK   11  A    between atoms: _28  and  _29
REMARK   12  A    between atoms: _31  and  _33
REMARK   13  A    between atoms: _33  and  _34
REMARK   14  A    between atoms: _33  and  _36
REMARK   15  A    between atoms: _36  and  _37
REMARK   16  A    between atoms: _42  and  _43
REMARK   17  A    between atoms: _45  and  _47
REMARK   18  A    between atoms: _47  and  _48
REMARK   19  A    between atoms: _47  and  _50
REMARK   20  A    between atoms: _50  and  _51
REMARK   21  A    between atoms: _56  and  _58
REMARK   22  A    between atoms: _58  and  _59
REMARK   23  A    between atoms: _58  and  _61
REMARK   24  A    between atoms: _61  and  _62
REMARK   25  A    between atoms: _67  and  _69
REMARK   26  A    between atoms: _69  and  _70
REMARK   27  A    between atoms: _69  and  _72
REMARK   28  A    between atoms: _72  and  _73
REMARK   29  A    between atoms: _83  and  _85
REMARK   30  A    between atoms: _85  and  _86
REMARK   31  A    between atoms: _85  and  _88
REMARK   32  A    between atoms: _91  and  _93
REMARK   33  A    between atoms: _93  and  _94
REMARK   34  A    between atoms: _97  and  _99
REMARK   35  A    between atoms: _99  and  _100
REMARK   36  A    between atoms: _99  and  _102
REMARK   37  A    between atoms: _102  and  _103
REMARK   38  A    between atoms: _103  and  _104
REMARK   39  A    between atoms: _106  and  _108
REMARK   40  A    between atoms: _108  and  _109
REMARK   41  A    between atoms: _108  and  _111
REMARK   42  A    between atoms: _111  and  _112
REMARK   43  A    between atoms: _117  and  _118
REMARK   44  A    between atoms: _120  and  _122
REMARK   45  A    between atoms: _122  and  _123
REMARK   46  A    between atoms: _122  and  _125
REMARK   47  A    between atoms: _128  and  _130
REMARK   48  A    between atoms: _130  and  _131
REMARK   49  A    between atoms: _130  and  _133
REMARK   50  A    between atoms: _133  and  _134
REMARK   51  A    between atoms: _139  and  _141
REMARK   52  A    between atoms: _141  and  _142
REMARK   53  A    between atoms: _144  and  _146
REMARK   54  A    between atoms: _146  and  _147
REMARK   55  A    between atoms: _146  and  _149
REMARK   56  A    between atoms: _149  and  _150
REMARK   57  A    between atoms: _153  and  _155
REMARK   58  A    between atoms: _155  and  _156
REMARK   59  A    between atoms: _155  and  _158
REMARK   60  A    between atoms: _158  and  _159
REMARK   61  A    between atoms: _159  and  _160
REMARK   62  A    between atoms: _160  and  _161
REMARK   63  A    between atoms: _161  and  _162
REMARK   64  A    between atoms: _166  and  _168
REMARK   65  A    between atoms: _168  and  _169
REMARK   66  A    between atoms: _168  and  _171
REMARK   67  A    between atoms: _171  and  _172
REMARK   68  A    between atoms: _175  and  _177
REMARK   69  A    between atoms: _177  and  _178
REMARK   70  A    between atoms: _177  and  _180
REMARK   71  A    between atoms: _180  and  _181
REMARK   72  A    between atoms: _184  and  _186
REMARK   73  A    between atoms: _186  and  _187
REMARK   74  A    between atoms: _190  and  _192
REMARK   75  A    between atoms: _192  and  _193
REMARK   76  A    between atoms: _195  and  _197
REMARK   77  A    between atoms: _197  and  _198
REMARK   78  A    between atoms: _197  and  _200
REMARK   79  A    between atoms: _200  and  _201
REMARK   80  A    between atoms: _206  and  _208
REMARK   81  A    between atoms: _208  and  _209
REMARK   82  A    between atoms: _212  and  _214
REMARK   83  A    between atoms: _214  and  _215
REMARK   84  A    between atoms: _214  and  _217
REMARK   85  A    between atoms: _217  and  _218
REMARK   86  A    between atoms: _223  and  _225
REMARK   87  A    between atoms: _225  and  _226
REMARK   88  A    between atoms: _225  and  _228
REMARK   89  A    between atoms: _228  and  _229
REMARK   90  A    between atoms: _229  and  _230
REMARK   91  A    between atoms: _233  and  _235
REMARK   92  A    between atoms: _235  and  _236
REMARK   93  A    between atoms: _235  and  _238
REMARK   94  A    between atoms: _238  and  _239
REMARK   95  A    between atoms: _239  and  _240
REMARK   96  A    between atoms: _245  and  _247
REMARK   97  A    between atoms: _247  and  _248
REMARK   98  A    between atoms: _247  and  _250
REMARK   99  A    between atoms: _250  and  _251
REMARK  100  A    between atoms: _254  and  _256
REMARK  101  A    between atoms: _256  and  _257
REMARK  102  A    between atoms: _256  and  _259
REMARK  103  A    between atoms: _259  and  _260
REMARK  104  A    between atoms: _266  and  _268
REMARK  105  A    between atoms: _268  and  _269
REMARK  106  A    between atoms: _268  and  _271
REMARK  107  A    between atoms: _271  and  _272
REMARK  108  A    between atoms: _275  and  _277
REMARK  109  A    between atoms: _277  and  _278
REMARK  110  A    between atoms: _277  and  _280
REMARK  111  A    between atoms: _280  and  _281
REMARK  112  A    between atoms: _281  and  _282
REMARK  113  A    between atoms: _284  and  _286
REMARK  114  A    between atoms: _286  and  _287
REMARK  115  A    between atoms: _286  and  _289
REMARK  116  A    between atoms: _289  and  _290
REMARK  117  A    between atoms: _300  and  _302
REMARK  118  A    between atoms: _302  and  _303
REMARK  119  A    between atoms: _302  and  _305
REMARK  120  A    between atoms: _305  and  _306
REMARK  121  A    between atoms: _306  and  _307
REMARK  122  A    between atoms: _311  and  _312
REMARK  123  A    between atoms: _317  and  _319
REMARK  124  A    between atoms: _319  and  _320
REMARK  125  A    between atoms: _319  and  _322
REMARK  126  A    between atoms: _322  and  _323
REMARK  127  A    between atoms: _326  and  _328
REMARK  128  A    between atoms: _328  and  _329
REMARK  129  A    between atoms: _328  and  _331
REMARK  130  A    between atoms: _331  and  _332
REMARK  131  A    between atoms: _332  and  _333
REMARK  132  A    between atoms: _333  and  _334
REMARK  133  A    between atoms: _343  and  _345
REMARK  134  A    between atoms: _345  and  _346
REMARK  135  A    between atoms: _345  and  _348
REMARK  136  A    between atoms: _348  and  _349
REMARK  137  A    between atoms: _352  and  _354
REMARK  138  A    between atoms: _354  and  _355
REMARK  139  A    between atoms: _358  and  _360
REMARK  140  A    between atoms: _360  and  _361
REMARK  141  A    between atoms: _360  and  _363
REMARK  142  A    between atoms: _363  and  _364
REMARK  143  A    between atoms: _369  and  _371
REMARK  144  A    between atoms: _371  and  _372
REMARK  145  A    between atoms: _375  and  _377
REMARK  146  A    between atoms: _377  and  _378
REMARK  147  A    between atoms: _377  and  _380
REMARK  148  A    between atoms: _380  and  _381
REMARK  149  A    between atoms: _386  and  _387
REMARK  150  A    between atoms: _389  and  _391
REMARK  151  A    between atoms: _391  and  _392
REMARK  152  A    between atoms: _391  and  _394
REMARK  153  A    between atoms: _394  and  _395
REMARK  154  A    between atoms: _397  and  _399
REMARK  155  A    between atoms: _399  and  _400
REMARK  156  A    between atoms: _399  and  _402
REMARK  157  A    between atoms: _402  and  _403
REMARK  158  A    between atoms: _409  and  _411
REMARK  159  A    between atoms: _411  and  _412
REMARK  160  A    between atoms: _411  and  _414
REMARK  161  A    between atoms: _414  and  _415
REMARK  162  A    between atoms: _421  and  _423
REMARK  163  A    between atoms: _423  and  _424
REMARK  164  A    between atoms: _423  and  _426
REMARK  165  A    between atoms: _426  and  _427
REMARK  166  A    between atoms: _432  and  _434
REMARK  167  A    between atoms: _434  and  _435
REMARK  168  A    between atoms: _437  and  _439
REMARK  169  A    between atoms: _439  and  _440
REMARK  170  A    between atoms: _439  and  _442
REMARK  171  A    between atoms: _445  and  _447
REMARK  172  A    between atoms: _447  and  _448
REMARK  173  A    between atoms: _447  and  _450
REMARK  174  A    between atoms: _450  and  _451
REMARK  175  A    between atoms: _461  and  _463
REMARK  176  A    between atoms: _463  and  _464
REMARK  177  A    between atoms: _467  and  _469
REMARK  178  A    between atoms: _469  and  _470
REMARK  179  A    between atoms: _469  and  _472
REMARK  180  A    between atoms: _472  and  _473
REMARK  181  A    between atoms: _473  and  _474
REMARK  182  A    between atoms: _477  and  _479
REMARK  183  A    between atoms: _479  and  _480
REMARK  184  A    between atoms: _479  and  _482
REMARK  185  A    between atoms: _482  and  _483
REMARK  186  A    between atoms: _485  and  _487
REMARK  187  A    between atoms: _487  and  _488
REMARK  188  A    between atoms: _490  and  _492
REMARK  189  A    between atoms: _492  and  _493
REMARK  190  A    between atoms: _495  and  _497
REMARK  191  A    between atoms: _497  and  _498
REMARK  192  A    between atoms: _497  and  _500
REMARK  193  A    between atoms: _500  and  _501
REMARK  194  A    between atoms: _504  and  _506
REMARK  195  A    between atoms: _506  and  _507
REMARK  196  A    between atoms: _506  and  _509
REMARK  197  A    between atoms: _512  and  _514
REMARK  198  A    between atoms: _514  and  _515
REMARK  199  A    between atoms: _517  and  _519
REMARK  200  A    between atoms: _519  and  _520
REMARK  201  A    between atoms: _523  and  _525
REMARK  202  A    between atoms: _525  and  _526
REMARK  203  A    between atoms: _525  and  _528
REMARK  204  A    between atoms: _528  and  _529
REMARK  205  A    between atoms: _535  and  _536
REMARK  206  A    between atoms: _541  and  _543
REMARK  207  A    between atoms: _543  and  _544
REMARK  208  A    between atoms: _543  and  _546
REMARK  209  A    between atoms: _546  and  _547
REMARK  210  A    between atoms: _550  and  _552
REMARK  211  A    between atoms: _552  and  _553
REMARK  212  A    between atoms: _552  and  _555
REMARK  213  A    between atoms: _555  and  _556
REMARK  214  A    between atoms: _558  and  _560
REMARK  215  A    between atoms: _560  and  _561
REMARK  216  A    between atoms: _560  and  _563
REMARK  217  A    between atoms: _563  and  _564
REMARK  218  A    between atoms: _567  and  _569
REMARK  219  A    between atoms: _569  and  _570
REMARK  220  A    between atoms: _569  and  _572
REMARK  221  A    between atoms: _572  and  _573
REMARK  222  A    between atoms: _578  and  _580
REMARK  223  A    between atoms: _580  and  _581
REMARK  224  A    between atoms: _580  and  _583
REMARK  225  A    between atoms: _583  and  _584
REMARK                            x       y       z     vdW  Elec       q    Type
REMARK                         _______ _______ _______ _____ _____    ______ ____
ROOT
ATOM      1  C   GLU A   1      17.012  -3.749  40.704  0.00  0.00    +0.241 C 
ATOM      2  O   GLU A   1      16.144  -4.411  41.272  0.00  0.00    -0.273 OA
ATOM      3  N   PRO A   2      16.711  -2.773  39.814  0.00  0.00    -0.273 N 
ATOM      4  CA  PRO A   2      15.308  -2.484  39.482  0.00  0.00    +0.140 C 
ATOM      5  CB  PRO A   2      15.420  -1.350  38.462  0.00  0.00    +0.030 C 
ATOM      6  CG  PRO A   2      16.737  -0.725  38.732  0.00  0.00    +0.024 C 
ATOM      7  CD  PRO A   2      17.624  -1.859  39.099  0.00  0.00    +0.094 C 
ENDROOT
BRANCH   4   8
ATOM      8  C   PRO A   2      14.511  -3.641  38.869  0.00  0.00    +0.227 C 
ATOM      9  O   PRO A   2      13.280  -3.617  38.910  0.00  0.00    -0.286 OA
ENDBRANCH   4   8
BRANCH   1  10
ATOM     10  CA  GLU A   1      18.496  -4.023  41.014  0.00  0.00    +0.146 C 
BRANCH  10  11
ATOM     11  N   GLU A   1      19.318  -4.105  39.803  0.00  0.00    -0.238 NA
ATOM     12  H   GLU A   1      20.151  -3.488  39.717  0.00  0.00    +0.142 HD
ENDBRANCH  10  11
BRANCH  10  13
ATOM     13  CB  GLU A   1      19.046  -2.971  41.992  0.00  0.00    +0.038 C 
BRANCH  13  14
ATOM     14  CG  GLU A   1      18.214  -2.797  43.274  0.00  0.00    +0.116 C 
BRANCH  14  15
ATOM     15  CD  GLU A   1      18.626  -1.585  44.102  0.00  0.00    +0.365 C 
ATOM     16  OE2 GLU A   1      18.679  -1.701  45.342  0.00  0.00    -0.246 OA
ATOM     17  OE1 GLU A   1      18.898  -0.513  43.519  0.00  0.00    -0.246 OA
ENDBRANCH  14  15
ENDBRANCH  13  14
ENDBRANCH  10  13
ENDBRANCH   1  10
TORSDOF 6
REMARK  Name = ../refined-set-2016/2w7y/2w7y_pocket.pdb
REMARK  225 active torsions:
REMARK  status: ('A' for Active; 'I' for Inactive)
REMARK    1  A    between atoms: _1  and  _3
REMARK    2  A    between atoms: _3  and  _4
REMARK    3  A    between atoms: _3  and  _6
REMARK    4  A    between atoms: _6  and  _7
REMARK    5  A    between atoms: _12  and  _13
REMARK    6  A    between atoms: _15  and  _17
REMARK    7  A    between atoms: _17  and  _18
REMARK    8  A    between atoms: _17  and  _20
REMARK    9  A    between atoms: _20  and  _21
REMARK   10  A    between atoms: _26  and  _28
REMARK   11  A    between atoms: _28  and  _29
REMARK   12  A    between atoms: _31  and  _33
REMARK   13  A    between atoms: _33  and  _34
REMARK   14  A    between atoms: _33  and  _36
REMARK   15  A    between atoms: _36  and  _37
REMARK   16  A    between atoms: _42  and  _43
REMARK   17  A    between atoms: _45  and  _47
REMARK   18  A    between atoms: _47  and  _48
REMARK   19  A    between atoms: _47  and  _50
REMARK   20  A    between atoms: _50  and  _51
REMARK   21  A    between atoms: _56  and  _58
REMARK   22  A    between atoms: _58  and  _59
REMARK   23  A    between atoms: _58  and  _61
REMARK   24  A    between atoms: _61  and  _62
REMARK   25  A    between atoms: _67  and  _69
REMARK   26  A    between atoms: _69  and  _70
REMARK   27  A    between atoms: _69  and  _72
REMARK   28  A    between atoms: _72  and  _73
REMARK   29  A    between atoms: _83  and  _85
REMARK   30  A    between atoms: _85  and  _86
REMARK   31  A    between atoms: _85  and  _88
REMARK   32  A    between atoms: _91  and  _93
REMARK   33  A    between atoms: _93  and  _94
REMARK   34  A    between atoms: _97  and  _99
REMARK   35  A    between atoms: _99  and  _100
REMARK   36  A    between atoms: _99  and  _102
REMARK   37  A    between atoms: _102  and  _103
REMARK   38  A    between atoms: _103  and  _104
REMARK   39  A    between atoms: _106  and  _108
REMARK   40  A    between atoms: _108  and  _109
REMARK   41  A    between atoms: _108  and  _111
REMARK   42  A    between atoms: _111  and  _112
REMARK   43  A    between atoms: _117  and  _118
REMARK   44  A    between atoms: _120  and  _122
REMARK   45  A    between atoms: _122  and  _123
REMARK   46  A    between atoms: _122  and  _125
REMARK   47  A    between atoms: _128  and  _130
REMARK   48  A    between atoms: _130  and  _131
REMARK   49  A    between atoms: _130  and  _133
REMARK   50  A    between atoms: _133  and  _134
REMARK   51  A    between atoms: _139  and  _141
REMARK   52  A    between atoms: _141  and  _142
REMARK   53  A    between atoms: _144  and  _146
REMARK   54  A    between atoms: _146  and  _147
REMARK   55  A    between atoms: _146  and  _149
REMARK   56  A    between atoms: _149  and  _150
REMARK   57  A    between atoms: _153  and  _155
REMARK   58  A    between atoms: _155  and  _156
REMARK   59  A    between atoms: _155  and  _158
REMARK   60  A    between atoms: _158  and  _159
REMARK   61  A    between atoms: _159  and  _160
REMARK   62  A    between atoms: _160  and  _161
REMARK   63  A    between atoms: _161  and  _162
REMARK   64  A    between atoms: _166  and  _168
REMARK   65  A    between atoms: _168  and  _169
REMARK   66  A    between atoms: _168  and  _171
REMARK   67  A    between atoms: _171  and  _172
REMARK   68  A    between atoms: _175  and  _177
REMARK   69  A    between atoms: _177  and  _178
REMARK   70  A    between atoms: _177  and  _180
REMARK   71  A    between atoms: _180  and  _181
REMARK   72  A    between atoms: _184  and  _186
REMARK   73  A    between atoms: _186  and  _187
REMARK   74  A    between atoms: _190  and  _192
REMARK   75  A    between atoms: _192  and  _193
REMARK   76  A    between atoms: _195  and  _197
REMARK   77  A    between atoms: _197  and  _198
REMARK   78  A    between atoms: _197  and  _200
REMARK   79  A    between atoms: _200  and  _201
REMARK   80  A    between atoms: _206  and  _208
REMARK   81  A    between atoms: _208  and  _209
REMARK   82  A    between atoms: _212  and  _214
REMARK   83  A    between atoms: _214  and  _215
REMARK   84  A    between atoms: _214  and  _217
REMARK   85  A    between atoms: _217  and  _218
REMARK   86  A    between atoms: _223  and  _225
REMARK   87  A    between atoms: _225  and  _226
REMARK   88  A    between atoms: _225  and  _228
REMARK   89  A    between atoms: _228  and  _229
REMARK   90  A    between atoms: _229  and  _230
REMARK   91  A    between atoms: _233  and  _235
REMARK   92  A    between atoms: _235  and  _236
REMARK   93  A    between atoms: _235  and  _238
REMARK   94  A    between atoms: _238  and  _239
REMARK   95  A    between atoms: _239  and  _240
REMARK   96  A    between atoms: _245  and  _247
REMARK   97  A    between atoms: _247  and  _248
REMARK   98  A    between atoms: _247  and  _250
REMARK   99  A    between atoms: _250  and  _251
REMARK  100  A    between atoms: _254  and  _256
REMARK  101  A    between atoms: _256  and  _257
REMARK  102  A    between atoms: _256  and  _259
REMARK  103  A    between atoms: _259  and  _260
REMARK  104  A    between atoms: _266  and  _268
REMARK  105  A    between atoms: _268  and  _269
REMARK  106  A    between atoms: _268  and  _271
REMARK  107  A    between atoms: _271  and  _272
REMARK  108  A    between atoms: _275  and  _277
REMARK  109  A    between atoms: _277  and  _278
REMARK  110  A    between atoms: _277  and  _280
REMARK  111  A    between atoms: _280  and  _281
REMARK  112  A    between atoms: _281  and  _282
REMARK  113  A    between atoms: _284  and  _286
REMARK  114  A    between atoms: _286  and  _287
REMARK  115  A    between atoms: _286  and  _289
REMARK  116  A    between atoms: _289  and  _290
REMARK  117  A    between atoms: _300  and  _302
REMARK  118  A    between atoms: _302  and  _303
REMARK  119  A    between atoms: _302  and  _305
REMARK  120  A    between atoms: _305  and  _306
REMARK  121  A    between atoms: _306  and  _307
REMARK  122  A    between atoms: _311  and  _312
REMARK  123  A    between atoms: _317  and  _319
REMARK  124  A    between atoms: _319  and  _320
REMARK  125  A    between atoms: _319  and  _322
REMARK  126  A    between atoms: _322  and  _323
REMARK  127  A    between atoms: _326  and  _328
REMARK  128  A    between atoms: _328  and  _329
REMARK  129  A    between atoms: _328  and  _331
REMARK  130  A    between atoms: _331  and  _332
REMARK  131  A    between atoms: _332  and  _333
REMARK  132  A    between atoms: _333  and  _334
REMARK  133  A    between atoms: _343  and  _345
REMARK  134  A    between atoms: _345  and  _346
REMARK  135  A    between atoms: _345  and  _348
REMARK  136  A    between atoms: _348  and  _349
REMARK  137  A    between atoms: _352  and  _354
REMARK  138  A    between atoms: _354  and  _355
REMARK  139  A    between atoms: _358  and  _360
REMARK  140  A    between atoms: _360  and  _361
REMARK  141  A    between atoms: _360  and  _363
REMARK  142  A    between atoms: _363  and  _364
REMARK  143  A    between atoms: _369  and  _371
REMARK  144  A    between atoms: _371  and  _372
REMARK  145  A    between atoms: _375  and  _377
REMARK  146  A    between atoms: _377  and  _378
REMARK  147  A    between atoms: _377  and  _380
REMARK  148  A    between atoms: _380  and  _381
REMARK  149  A    between atoms: _386  and  _387
REMARK  150  A    between atoms: _389  and  _391
REMARK  151  A    between atoms: _391  and  _392
REMARK  152  A    between atoms: _391  and  _394
REMARK  153  A    between atoms: _394  and  _395
REMARK  154  A    between atoms: _397  and  _399
REMARK  155  A    between atoms: _399  and  _400
REMARK  156  A    between atoms: _399  and  _402
REMARK  157  A    between atoms: _402  and  _403
REMARK  158  A    between atoms: _409  and  _411
REMARK  159  A    between atoms: _411  and  _412
REMARK  160  A    between atoms: _411  and  _414
REMARK  161  A    between atoms: _414  and  _415
REMARK  162  A    between atoms: _421  and  _423
REMARK  163  A    between atoms: _423  and  _424
REMARK  164  A    between atoms: _423  and  _426
REMARK  165  A    between atoms: _426  and  _427
REMARK  166  A    between atoms: _432  and  _434
REMARK  167  A    between atoms: _434  and  _435
REMARK  168  A    between atoms: _437  and  _439
REMARK  169  A    between atoms: _439  and  _440
REMARK  170  A    between atoms: _439  and  _442
REMARK  171  A    between atoms: _445  and  _447
REMARK  172  A    between atoms: _447  and  _448
REMARK  173  A    between atoms: _447  and  _450
REMARK  174  A    between atoms: _450  and  _451
REMARK  175  A    between atoms: _461  and  _463
REMARK  176  A    between atoms: _463  and  _464
REMARK  177  A    between atoms: _467  and  _469
REMARK  178  A    between atoms: _469  and  _470
REMARK  179  A    between atoms: _469  and  _472
REMARK  180  A    between atoms: _472  and  _473
REMARK  181  A    between atoms: _473  and  _474
REMARK  182  A    between atoms: _477  and  _479
REMARK  183  A    between atoms: _479  and  _480
REMARK  184  A    between atoms: _479  and  _482
REMARK  185  A    between atoms: _482  and  _483
REMARK  186  A    between atoms: _485  and  _487
REMARK  187  A    between atoms: _487  and  _488
REMARK  188  A    between atoms: _490  and  _492
REMARK  189  A    between atoms: _492  and  _493
REMARK  190  A    between atoms: _495  and  _497
REMARK  191  A    between atoms: _497  and  _498
REMARK  192  A    between atoms: _497  and  _500
REMARK  193  A    between atoms: _500  and  _501
REMARK  194  A    between atoms: _504  and  _506
REMARK  195  A    between atoms: _506  and  _507
REMARK  196  A    between atoms: _506  and  _509
REMARK  197  A    between atoms: _512  and  _514
REMARK  198  A    between atoms: _514  and  _515
REMARK  199  A    between atoms: _517  and  _519
REMARK  200  A    between atoms: _519  and  _520
REMARK  201  A    between atoms: _523  and  _525
REMARK  202  A    between atoms: _525  and  _526
REMARK  203  A    between atoms: _525  and  _528
REMARK  204  A    between atoms: _528  and  _529
REMARK  205  A    between atoms: _535  and  _536
REMARK  206  A    between atoms: _541  and  _543
REMARK  207  A    between atoms: _543  and  _544
REMARK  208  A    between atoms: _543  and  _546
REMARK  209  A    between atoms: _546  and  _547
REMARK  210  A    between atoms: _550  and  _552
REMARK  211  A    between atoms: _552  and  _553
REMARK  212  A    between atoms: _552  and  _555
REMARK  213  A    between atoms: _555  and  _556
REMARK  214  A    between atoms: _558  and  _560
REMARK  215  A    between atoms: _560  and  _561
REMARK  216  A    between atoms: _560  and  _563
REMARK  217  A    between atoms: _563  and  _564
REMARK  218  A    between atoms: _567  and  _569
REMARK  219  A    between atoms: _569  and  _570
REMARK  220  A    between atoms: _569  and  _572
REMARK  221  A    between atoms: _572  and  _573
REMARK  222  A    between atoms: _578  and  _580
REMARK  223  A    between atoms: _580  and  _581
REMARK  224  A    between atoms: _580  and  _583
REMARK  225  A    between atoms: _583  and  _584
REMARK                            x       y       z     vdW  Elec       q    Type
REMARK                         _______ _______ _______ _____ _____    ______ ____
ROOT
ATOM      1  CA  ARG A   2      10.782  -5.140  41.316  0.00  0.00    +0.137 C 
ENDROOT
BRANCH   1   4
ATOM      2  C   ILE A   1      12.299  -7.069  41.283  0.00  0.00    +0.238 C 
ATOM      3  O   ILE A   1      11.459  -7.820  41.773  0.00  0.00    -0.274 OA
ATOM      4  N   ARG A   2      12.074  -5.774  41.054  0.00  0.00    -0.298 N 
ATOM      5  H   ARG A   2      12.848  -5.192  40.674  0.00  0.00    +0.150 HD
BRANCH   2   6
ATOM      6  CA  ILE A   1      13.679  -7.602  40.885  0.00  0.00    +0.145 C 
BRANCH   6   7
ATOM      7  N   ILE A   1      14.306  -6.764  39.857  0.00  0.00    -0.238 NA
ATOM      8  H   ILE A   1      15.138  -6.192  40.105  0.00  0.00    +0.142 HD
ENDBRANCH   6   7
BRANCH   6   9
ATOM      9  CB  ILE A   1      14.596  -7.821  42.135  0.00  0.00    +0.025 C 
ATOM     10  CG2 ILE A   1      14.655  -6.558  43.013  0.00  0.00    +0.002 C 
BRANCH   9  11
ATOM     11  CG1 ILE A   1      14.148  -9.059  42.930  0.00  0.00    +0.002 C 
ATOM     12  CD1 ILE A   1      15.059  -9.452  44.080  0.00  0.00    +0.000 C 
ENDBRANCH   9  11
ENDBRANCH   6   9
ENDBRANCH   2   6
ENDBRANCH   1   4
BRANCH   1  13
ATOM     13  C   ARG A   2       9.736  -5.617  40.311  0.00  0.00    +0.227 C 
ATOM     14  O   ARG A   2       8.542  -5.664  40.624  0.00  0.00    -0.286 OA
ENDBRANCH   1  13
BRANCH   1  15
ATOM     15  CB  ARG A   2      10.883  -3.606  41.277  0.00  0.00    +0.031 C 
BRANCH  15  16
ATOM     16  CG  ARG A   2      12.150  -2.998  41.869  0.00  0.00    +0.045 C 
BRANCH  16  17
ATOM     17  CD  ARG A   2      12.332  -3.326  43.348  0.00  0.00    +0.174 C 
BRANCH  17  18
ATOM     18  NE  ARG A   2      13.401  -2.528  43.945  0.00  0.00    -0.265 N 
ATOM     19  CZ  ARG A   2      13.916  -2.738  45.152  0.00  0.00    +0.342 C 
ATOM     20  NH2 ARG A   2      13.466  -3.729  45.913  0.00  0.00    -0.292 N 
ATOM     21 HH21 ARG A   2      13.874  -3.887  46.856  0.00  0.00    +0.255 HD
ATOM     22 HH22 ARG A   2      12.705  -4.347  45.566  0.00  0.00    +0.255 HD
ATOM     23  NH1 ARG A   2      14.883  -1.950  45.597  0.00  0.00    -0.292 N 
ATOM     24 HH11 ARG A   2      15.290  -2.109  46.541  0.00  0.00    +0.255 HD
ATOM     25 HH12 ARG A   2      15.235  -1.172  45.003  0.00  0.00    +0.255 HD
ATOM     26  HE  ARG A   2      13.786  -1.740  43.386  0.00  0.00    +0.259 HD
ENDBRANCH  17  18
ENDBRANCH  16  17
ENDBRANCH  15  16
ENDBRANCH   1  15
TORSDOF 10
REMARK  Name = ../refined-set-2016/2w7y/2w7y_pocket.pdb
REMARK  225 active torsions:
REMARK  status: ('A' for Active; 'I' for Inactive)
REMARK    1  A    between atoms: _1  and  _3
REMARK    2  A    between atoms: _3  and  _4
REMARK    3  A    between atoms: _3  and  _6
REMARK    4  A    between atoms: _6  and  _7
REMARK    5  A    between atoms: _12  and  _13
REMARK    6  A    between atoms: _15  and  _17
REMARK    7  A    between atoms: _17  and  _18
REMARK    8  A    between atoms: _17  and  _20
REMARK    9  A    between atoms: _20  and  _21
REMARK   10  A    between atoms: _26  and  _28
REMARK   11  A    between atoms: _28  and  _29
REMARK   12  A    between atoms: _31  and  _33
REMARK   13  A    between atoms: _33  and  _34
REMARK   14  A    between atoms: _33  and  _36
REMARK   15  A    between atoms: _36  and  _37
REMARK   16  A    between atoms: _42  and  _43
REMARK   17  A    between atoms: _45  and  _47
REMARK   18  A    between atoms: _47  and  _48
REMARK   19  A    between atoms: _47  and  _50
REMARK   20  A    between atoms: _50  and  _51
REMARK   21  A    between atoms: _56  and  _58
REMARK   22  A    between atoms: _58  and  _59
REMARK   23  A    between atoms: _58  and  _61
REMARK   24  A    between atoms: _61  and  _62
REMARK   25  A    between atoms: _67  and  _69
REMARK   26  A    between atoms: _69  and  _70
REMARK   27  A    between atoms: _69  and  _72
REMARK   28  A    between atoms: _72  and  _73
REMARK   29  A    between atoms: _83  and  _85
REMARK   30  A    between atoms: _85  and  _86
REMARK   31  A    between atoms: _85  and  _88
REMARK   32  A    between atoms: _91  and  _93
REMARK   33  A    between atoms: _93  and  _94
REMARK   34  A    between atoms: _97  and  _99
REMARK   35  A    between atoms: _99  and  _100
REMARK   36  A    between atoms: _99  and  _102
REMARK   37  A    between atoms: _102  and  _103
REMARK   38  A    between atoms: _103  and  _104
REMARK   39  A    between atoms: _106  and  _108
REMARK   40  A    between atoms: _108  and  _109
REMARK   41  A    between atoms: _108  and  _111
REMARK   42  A    between atoms: _111  and  _112
REMARK   43  A    between atoms: _117  and  _118
REMARK   44  A    between atoms: _120  and  _122
REMARK   45  A    between atoms: _122  and  _123
REMARK   46  A    between atoms: _122  and  _125
REMARK   47  A    between atoms: _128  and  _130
REMARK   48  A    between atoms: _130  and  _131
REMARK   49  A    between atoms: _130  and  _133
REMARK   50  A    between atoms: _133  and  _134
REMARK   51  A    between atoms: _139  and  _141
REMARK   52  A    between atoms: _141  and  _142
REMARK   53  A    between atoms: _144  and  _146
REMARK   54  A    between atoms: _146  and  _147
REMARK   55  A    between atoms: _146  and  _149
REMARK   56  A    between atoms: _149  and  _150
REMARK   57  A    between atoms: _153  and  _155
REMARK   58  A    between atoms: _155  and  _156
REMARK   59  A    between atoms: _155  and  _158
REMARK   60  A    between atoms: _158  and  _159
REMARK   61  A    between atoms: _159  and  _160
REMARK   62  A    between atoms: _160  and  _161
REMARK   63  A    between atoms: _161  and  _162
REMARK   64  A    between atoms: _166  and  _168
REMARK   65  A    between atoms: _168  and  _169
REMARK   66  A    between atoms: _168  and  _171
REMARK   67  A    between atoms: _171  and  _172
REMARK   68  A    between atoms: _175  and  _177
REMARK   69  A    between atoms: _177  and  _178
REMARK   70  A    between atoms: _177  and  _180
REMARK   71  A    between atoms: _180  and  _181
REMARK   72  A    between atoms: _184  and  _186
REMARK   73  A    between atoms: _186  and  _187
REMARK   74  A    between atoms: _190  and  _192
REMARK   75  A    between atoms: _192  and  _193
REMARK   76  A    between atoms: _195  and  _197
REMARK   77  A    between atoms: _197  and  _198
REMARK   78  A    between atoms: _197  and  _200
REMARK   79  A    between atoms: _200  and  _201
REMARK   80  A    between atoms: _206  and  _208
REMARK   81  A    between atoms: _208  and  _209
REMARK   82  A    between atoms: _212  and  _214
REMARK   83  A    between atoms: _214  and  _215
REMARK   84  A    between atoms: _214  and  _217
REMARK   85  A    between atoms: _217  and  _218
REMARK   86  A    between atoms: _223  and  _225
REMARK   87  A    between atoms: _225  and  _226
REMARK   88  A    between atoms: _225  and  _228
REMARK   89  A    between atoms: _228  and  _229
REMARK   90  A    between atoms: _229  and  _230
REMARK   91  A    between atoms: _233  and  _235
REMARK   92  A    between atoms: _235  and  _236
REMARK   93  A    between atoms: _235  and  _238
REMARK   94  A    between atoms: _238  and  _239
REMARK   95  A    between atoms: _239  and  _240
REMARK   96  A    between atoms: _245  and  _247
REMARK   97  A    between atoms: _247  and  _248
REMARK   98  A    between atoms: _247  and  _250
REMARK   99  A    between atoms: _250  and  _251
REMARK  100  A    between atoms: _254  and  _256
REMARK  101  A    between atoms: _256  and  _257
REMARK  102  A    between atoms: _256  and  _259
REMARK  103  A    between atoms: _259  and  _260
REMARK  104  A    between atoms: _266  and  _268
REMARK  105  A    between atoms: _268  and  _269
REMARK  106  A    between atoms: _268  and  _271
REMARK  107  A    between atoms: _271  and  _272
REMARK  108  A    between atoms: _275  and  _277
REMARK  109  A    between atoms: _277  and  _278
REMARK  110  A    between atoms: _277  and  _280
REMARK  111  A    between atoms: _280  and  _281
REMARK  112  A    between atoms: _281  and  _282
REMARK  113  A    between atoms: _284  and  _286
REMARK  114  A    between atoms: _286  and  _287
REMARK  115  A    between atoms: _286  and  _289
REMARK  116  A    between atoms: _289  and  _290
REMARK  117  A    between atoms: _300  and  _302
REMARK  118  A    between atoms: _302  and  _303
REMARK  119  A    between atoms: _302  and  _305
REMARK  120  A    between atoms: _305  and  _306
REMARK  121  A    between atoms: _306  and  _307
REMARK  122  A    between atoms: _311  and  _312
REMARK  123  A    between atoms: _317  and  _319
REMARK  124  A    between atoms: _319  and  _320
REMARK  125  A    between atoms: _319  and  _322
REMARK  126  A    between atoms: _322  and  _323
REMARK  127  A    between atoms: _326  and  _328
REMARK  128  A    between atoms: _328  and  _329
REMARK  129  A    between atoms: _328  and  _331
REMARK  130  A    between atoms: _331  and  _332
REMARK  131  A    between atoms: _332  and  _333
REMARK  132  A    between atoms: _333  and  _334
REMARK  133  A    between atoms: _343  and  _345
REMARK  134  A    between atoms: _345  and  _346
REMARK  135  A    between atoms: _345  and  _348
REMARK  136  A    between atoms: _348  and  _349
REMARK  137  A    between atoms: _352  and  _354
REMARK  138  A    between atoms: _354  and  _355
REMARK  139  A    between atoms: _358  and  _360
REMARK  140  A    between atoms: _360  and  _361
REMARK  141  A    between atoms: _360  and  _363
REMARK  142  A    between atoms: _363  and  _364
REMARK  143  A    between atoms: _369  and  _371
REMARK  144  A    between atoms: _371  and  _372
REMARK  145  A    between atoms: _375  and  _377
REMARK  146  A    between atoms: _377  and  _378
REMARK  147  A    between atoms: _377  and  _380
REMARK  148  A    between atoms: _380  and  _381
REMARK  149  A    between atoms: _386  and  _387
REMARK  150  A    between atoms: _389  and  _391
REMARK  151  A    between atoms: _391  and  _392
REMARK  152  A    between atoms: _391  and  _394
REMARK  153  A    between atoms: _394  and  _395
REMARK  154  A    between atoms: _397  and  _399
REMARK  155  A    between atoms: _399  and  _400
REMARK  156  A    between atoms: _399  and  _402
REMARK  157  A    between atoms: _402  and  _403
REMARK  158  A    between atoms: _409  and  _411
REMARK  159  A    between atoms: _411  and  _412
REMARK  160  A    between atoms: _411  and  _414
REMARK  161  A    between atoms: _414  and  _415
REMARK  162  A    between atoms: _421  and  _423
REMARK  163  A    between atoms: _423  and  _424
REMARK  164  A    between atoms: _423  and  _426
REMARK  165  A    between atoms: _426  and  _427
REMARK  166  A    between atoms: _432  and  _434
REMARK  167  A    between atoms: _434  and  _435
REMARK  168  A    between atoms: _437  and  _439
REMARK  169  A    between atoms: _439  and  _440
REMARK  170  A    between atoms: _439  and  _442
REMARK  171  A    between atoms: _445  and  _447
REMARK  172  A    between atoms: _447  and  _448
REMARK  173  A    between atoms: _447  and  _450
REMARK  174  A    between atoms: _450  and  _451
REMARK  175  A    between atoms: _461  and  _463
REMARK  176  A    between atoms: _463  and  _464
REMARK  177  A    between atoms: _467  and  _469
REMARK  178  A    between atoms: _469  and  _470
REMARK  179  A    between atoms: _469  and  _472
REMARK  180  A    between atoms: _472  and  _473
REMARK  181  A    between atoms: _473  and  _474
REMARK  182  A    between atoms: _477  and  _479
REMARK  183  A    between atoms: _479  and  _480
REMARK  184  A    between atoms: _479  and  _482
REMARK  185  A    between atoms: _482  and  _483
REMARK  186  A    between atoms: _485  and  _487
REMARK  187  A    between atoms: _487  and  _488
REMARK  188  A    between atoms: _490  and  _492
REMARK  189  A    between atoms: _492  and  _493
REMARK  190  A    between atoms: _495  and  _497
REMARK  191  A    between atoms: _497  and  _498
REMARK  192  A    between atoms: _497  and  _500
REMARK  193  A    between atoms: _500  and  _501
REMARK  194  A    between atoms: _504  and  _506
REMARK  195  A    between atoms: _506  and  _507
REMARK  196  A    between atoms: _506  and  _509
REMARK  197  A    between atoms: _512  and  _514
REMARK  198  A    between atoms: _514  and  _515
REMARK  199  A    between atoms: _517  and  _519
REMARK  200  A    between atoms: _519  and  _520
REMARK  201  A    between atoms: _523  and  _525
REMARK  202  A    between atoms: _525  and  _526
REMARK  203  A    between atoms: _525  and  _528
REMARK  204  A    between atoms: _528  and  _529
REMARK  205  A    between atoms: _535  and  _536
REMARK  206  A    between atoms: _541  and  _543
REMARK  207  A    between atoms: _543  and  _544
REMARK  208  A    between atoms: _543  and  _546
REMARK  209  A    between atoms: _546  and  _547
REMARK  210  A    between atoms: _550  and  _552
REMARK  211  A    between atoms: _552  and  _553
REMARK  212  A    between atoms: _552  and  _555
REMARK  213  A    between atoms: _555  and  _556
REMARK  214  A    between atoms: _558  and  _560
REMARK  215  A    between atoms: _560  and  _561
REMARK  216  A    between atoms: _560  and  _563
REMARK  217  A    between atoms: _563  and  _564
REMARK  218  A    between atoms: _567  and  _569
REMARK  219  A    between atoms: _569  and  _570
REMARK  220  A    between atoms: _569  and  _572
REMARK  221  A    between atoms: _572  and  _573
REMARK  222  A    between atoms: _578  and  _580
REMARK  223  A    between atoms: _580  and  _581
REMARK  224  A    between atoms: _580  and  _583
REMARK  225  A    between atoms: _583  and  _584
REMARK                            x       y       z     vdW  Elec       q    Type
REMARK                         _______ _______ _______ _____ _____    ______ ____
ROOT
ATOM      1  C   ASN A   3      21.480   5.696  40.698  0.00  0.00    +0.241 C 
ATOM      2  O   ASN A   3      21.536   6.911  40.500  0.00  0.00    -0.273 OA
ATOM      3  N   ALA A   4      21.977   4.802  39.847  0.00  0.00    -0.297 N 
ATOM      4  H   ALA A   4      21.868   3.789  40.054  0.00  0.00    +0.150 HD
ENDROOT
BRANCH   3   5
ATOM      5  CA  ALA A   4      22.673   5.212  38.627  0.00  0.00    +0.149 C 
ATOM      6  CB  ALA A   4      23.835   4.276  38.338  0.00  0.00    +0.031 C 
BRANCH   5   7
ATOM      7  C   ALA A   4      21.742   5.329  37.414  0.00  0.00    +0.241 C 
ATOM      8  N   TYR A   5      20.485   4.923  37.589  0.00  0.00    -0.297 N 
ATOM      9  H   TYR A   5      20.223   4.490  38.497  0.00  0.00    +0.150 HD
ATOM     10  O   ALA A   4      22.165   5.778  36.346  0.00  0.00    -0.273 OA
BRANCH   8  11
ATOM     11  CA  TYR A   5      19.458   5.062  36.555  0.00  0.00    +0.153 C 
BRANCH  11  12
ATOM     12  C   TYR A   5      18.567   6.287  36.765  0.00  0.00    +0.241 C 
ATOM     13  N   SER A   6      18.652   6.879  37.955  0.00  0.00    -0.296 N 
ATOM     14  H   SER A   6      19.321   6.497  38.654  0.00  0.00    +0.150 HD
ATOM     15  O   TYR A   5      17.818   6.677  35.864  0.00  0.00    -0.273 OA
BRANCH  13  16
ATOM     16  CA  SER A   6      17.848   8.041  38.322  0.00  0.00    +0.166 C 
BRANCH  16  17
ATOM     17  C   SER A   6      18.159   9.256  37.452  0.00  0.00    +0.229 C 
ATOM     18  O   SER A   6      17.245   9.924  36.968  0.00  0.00    -0.286 OA
ENDBRANCH  16  17
BRANCH  16  19
ATOM     19  CB  SER A   6      18.054   8.388  39.798  0.00  0.00    +0.165 C 
BRANCH  19  20
ATOM     20  OG  SER A   6      17.232   9.476  40.185  0.00  0.00    -0.380 OA
ATOM     21  H   SER A   6      17.458  10.270  39.638  0.00  0.00    +0.211 HD
ENDBRANCH  19  20
ENDBRANCH  16  19
ENDBRANCH  13  16
ENDBRANCH  11  12
BRANCH  11  22
ATOM     22  CB  TYR A   5      18.595   3.797  36.471  0.00  0.00    +0.055 C 
BRANCH  22  23
ATOM     23  CG  TYR A   5      19.329   2.594  35.925  0.00  0.00    -0.020 A 
ATOM     24  CD2 TYR A   5      19.397   1.412  36.653  0.00  0.00    -0.001 A 
ATOM     25  CE2 TYR A   5      20.072   0.307  36.162  0.00  0.00    +0.036 A 
ATOM     26  CZ  TYR A   5      20.680   0.374  34.922  0.00  0.00    +0.134 A 
ATOM     27  CE1 TYR A   5      20.628   1.535  34.173  0.00  0.00    +0.036 A 
ATOM     28  CD1 TYR A   5      19.951   2.636  34.674  0.00  0.00    -0.001 A 
BRANCH  26  29
ATOM     29  OH  TYR A   5      21.344  -0.723  34.437  0.00  0.00    -0.506 OA
ATOM     30  HH  TYR A   5      20.713  -1.482  34.360  0.00  0.00    +0.292 HD
ENDBRANCH  26  29
ENDBRANCH  22  23
ENDBRANCH  11  22
ENDBRANCH   8  11
ENDBRANCH   5   7
ENDBRANCH   3   5
BRANCH   1  31
ATOM     31  CA  ASN A   3      20.813   5.145  41.959  0.00  0.00    +0.158 C 
BRANCH  31  33
ATOM     32  C   ALA A   2      19.120   3.696  40.954  0.00  0.00    +0.241 C 
ATOM     33  N   ASN A   3      20.160   3.851  41.768  0.00  0.00    -0.297 N 
ATOM     34  H   ASN A   3      20.521   3.024  42.286  0.00  0.00    +0.150 HD
ATOM     35  O   ALA A   2      18.653   4.616  40.279  0.00  0.00    -0.273 OA
BRANCH  32  36
ATOM     36  CA  ALA A   2      18.518   2.290  40.877  0.00  0.00    +0.149 C 
ATOM     37  CB  ALA A   2      17.402   2.129  41.909  0.00  0.00    +0.031 C 
BRANCH  36  39
ATOM     38  C   ASP A   1      20.586   1.126  40.231  0.00  0.00    +0.239 C 
ATOM     39  N   ALA A   2      19.514   1.218  41.019  0.00  0.00    -0.297 N 
ATOM     40  H   ALA A   2      19.377   0.504  41.763  0.00  0.00    +0.150 HD
ATOM     41  O   ASP A   1      20.866   1.965  39.367  0.00  0.00    -0.274 OA
BRANCH  38  42
ATOM     42  CA  ASP A   1      21.491  -0.087  40.453  0.00  0.00    +0.156 C 
BRANCH  42  43
ATOM     43  N   ASP A   1      22.557  -0.133  39.446  0.00  0.00    -0.238 NA
ATOM     44  H   ASP A   1      23.377   0.496  39.565  0.00  0.00    +0.142 HD
ENDBRANCH  42  43
BRANCH  42  45
ATOM     45  CB  ASP A   1      22.081  -0.058  41.869  0.00  0.00    +0.140 C 
BRANCH  45  46
ATOM     46  CG  ASP A   1      22.758  -1.367  42.252  0.00  0.00    +0.367 C 
ATOM     47  OD2 ASP A   1      23.290  -1.462  43.385  0.00  0.00    -0.246 OA
ATOM     48  OD1 ASP A   1      22.760  -2.305  41.422  0.00  0.00    -0.246 OA
ENDBRANCH  45  46
ENDBRANCH  42  45
ENDBRANCH  38  42
ENDBRANCH  36  39
ENDBRANCH  32  36
ENDBRANCH  31  33
BRANCH  31  49
ATOM     49  CB  ASN A   3      21.819   5.076  43.117  0.00  0.00    +0.114 C 
BRANCH  49  50
ATOM     50  CG  ASN A   3      21.147   5.126  44.488  0.00  0.00    +0.222 C 
ATOM     51  ND2 ASN A   3      21.776   4.503  45.480  0.00  0.00    -0.329 N 
ATOM     52 HD21 ASN A   3      21.372   4.511  46.438  0.00  0.00    +0.145 HD
ATOM     53 HD22 ASN A   3      22.672   4.007  45.298  0.00  0.00    +0.145 HD
ATOM     54  OD1 ASN A   3      20.084   5.727  44.652  0.00  0.00    -0.275 OA
ENDBRANCH  49  50
ENDBRANCH  31  49
ENDBRANCH   1  31
TORSDOF 21
REMARK  Name = ../refined-set-2016/2w7y/2w7y_pocket.pdb
REMARK  225 active torsions:
REMARK  status: ('A' for Active; 'I' for Inactive)
REMARK    1  A    between atoms: _1  and  _3
REMARK    2  A    between atoms: _3  and  _4
REMARK    3  A    between atoms: _3  and  _6
REMARK    4  A    between atoms: _6  and  _7
REMARK    5  A    between atoms: _12  and  _13
REMARK    6  A    between atoms: _15  and  _17
REMARK    7  A    between atoms: _17  and  _18
REMARK    8  A    between atoms: _17  and  _20
REMARK    9  A    between atoms: _20  and  _21
REMARK   10  A    between atoms: _26  and  _28
REMARK   11  A    between atoms: _28  and  _29
REMARK   12  A    between atoms: _31  and  _33
REMARK   13  A    between atoms: _33  and  _34
REMARK   14  A    between atoms: _33  and  _36
REMARK   15  A    between atoms: _36  and  _37
REMARK   16  A    between atoms: _42  and  _43
REMARK   17  A    between atoms: _45  and  _47
REMARK   18  A    between atoms: _47  and  _48
REMARK   19  A    between atoms: _47  and  _50
REMARK   20  A    between atoms: _50  and  _51
REMARK   21  A    between atoms: _56  and  _58
REMARK   22  A    between atoms: _58  and  _59
REMARK   23  A    between atoms: _58  and  _61
REMARK   24  A    between atoms: _61  and  _62
REMARK   25  A    between atoms: _67  and  _69
REMARK   26  A    between atoms: _69  and  _70
REMARK   27  A    between atoms: _69  and  _72
REMARK   28  A    between atoms: _72  and  _73
REMARK   29  A    between atoms: _83  and  _85
REMARK   30  A    between atoms: _85  and  _86
REMARK   31  A    between atoms: _85  and  _88
REMARK   32  A    between atoms: _91  and  _93
REMARK   33  A    between atoms: _93  and  _94
REMARK   34  A    between atoms: _97  and  _99
REMARK   35  A    between atoms: _99  and  _100
REMARK   36  A    between atoms: _99  and  _102
REMARK   37  A    between atoms: _102  and  _103
REMARK   38  A    between atoms: _103  and  _104
REMARK   39  A    between atoms: _106  and  _108
REMARK   40  A    between atoms: _108  and  _109
REMARK   41  A    between atoms: _108  and  _111
REMARK   42  A    between atoms: _111  and  _112
REMARK   43  A    between atoms: _117  and  _118
REMARK   44  A    between atoms: _120  and  _122
REMARK   45  A    between atoms: _122  and  _123
REMARK   46  A    between atoms: _122  and  _125
REMARK   47  A    between atoms: _128  and  _130
REMARK   48  A    between atoms: _130  and  _131
REMARK   49  A    between atoms: _130  and  _133
REMARK   50  A    between atoms: _133  and  _134
REMARK   51  A    between atoms: _139  and  _141
REMARK   52  A    between atoms: _141  and  _142
REMARK   53  A    between atoms: _144  and  _146
REMARK   54  A    between atoms: _146  and  _147
REMARK   55  A    between atoms: _146  and  _149
REMARK   56  A    between atoms: _149  and  _150
REMARK   57  A    between atoms: _153  and  _155
REMARK   58  A    between atoms: _155  and  _156
REMARK   59  A    between atoms: _155  and  _158
REMARK   60  A    between atoms: _158  and  _159
REMARK   61  A    between atoms: _159  and  _160
REMARK   62  A    between atoms: _160  and  _161
REMARK   63  A    between atoms: _161  and  _162
REMARK   64  A    between atoms: _166  and  _168
REMARK   65  A    between atoms: _168  and  _169
REMARK   66  A    between atoms: _168  and  _171
REMARK   67  A    between atoms: _171  and  _172
REMARK   68  A    between atoms: _175  and  _177
REMARK   69  A    between atoms: _177  and  _178
REMARK   70  A    between atoms: _177  and  _180
REMARK   71  A    between atoms: _180  and  _181
REMARK   72  A    between atoms: _184  and  _186
REMARK   73  A    between atoms: _186  and  _187
REMARK   74  A    between atoms: _190  and  _192
REMARK   75  A    between atoms: _192  and  _193
REMARK   76  A    between atoms: _195  and  _197
REMARK   77  A    between atoms: _197  and  _198
REMARK   78  A    between atoms: _197  and  _200
REMARK   79  A    between atoms: _200  and  _201
REMARK   80  A    between atoms: _206  and  _208
REMARK   81  A    between atoms: _208  and  _209
REMARK   82  A    between atoms: _212  and  _214
REMARK   83  A    between atoms: _214  and  _215
REMARK   84  A    between atoms: _214  and  _217
REMARK   85  A    between atoms: _217  and  _218
REMARK   86  A    between atoms: _223  and  _225
REMARK   87  A    between atoms: _225  and  _226
REMARK   88  A    between atoms: _225  and  _228
REMARK   89  A    between atoms: _228  and  _229
REMARK   90  A    between atoms: _229  and  _230
REMARK   91  A    between atoms: _233  and  _235
REMARK   92  A    between atoms: _235  and  _236
REMARK   93  A    between atoms: _235  and  _238
REMARK   94  A    between atoms: _238  and  _239
REMARK   95  A    between atoms: _239  and  _240
REMARK   96  A    between atoms: _245  and  _247
REMARK   97  A    between atoms: _247  and  _248
REMARK   98  A    between atoms: _247  and  _250
REMARK   99  A    between atoms: _250  and  _251
REMARK  100  A    between atoms: _254  and  _256
REMARK  101  A    between atoms: _256  and  _257
REMARK  102  A    between atoms: _256  and  _259
REMARK  103  A    between atoms: _259  and  _260
REMARK  104  A    between atoms: _266  and  _268
REMARK  105  A    between atoms: _268  and  _269
REMARK  106  A    between atoms: _268  and  _271
REMARK  107  A    between atoms: _271  and  _272
REMARK  108  A    between atoms: _275  and  _277
REMARK  109  A    between atoms: _277  and  _278
REMARK  110  A    between atoms: _277  and  _280
REMARK  111  A    between atoms: _280  and  _281
REMARK  112  A    between atoms: _281  and  _282
REMARK  113  A    between atoms: _284  and  _286
REMARK  114  A    between atoms: _286  and  _287
REMARK  115  A    between atoms: _286  and  _289
REMARK  116  A    between atoms: _289  and  _290
REMARK  117  A    between atoms: _300  and  _302
REMARK  118  A    between atoms: _302  and  _303
REMARK  119  A    between atoms: _302  and  _305
REMARK  120  A    between atoms: _305  and  _306
REMARK  121  A    between atoms: _306  and  _307
REMARK  122  A    between atoms: _311  and  _312
REMARK  123  A    between atoms: _317  and  _319
REMARK  124  A    between atoms: _319  and  _320
REMARK  125  A    between atoms: _319  and  _322
REMARK  126  A    between atoms: _322  and  _323
REMARK  127  A    between atoms: _326  and  _328
REMARK  128  A    between atoms: _328  and  _329
REMARK  129  A    between atoms: _328  and  _331
REMARK  130  A    between atoms: _331  and  _332
REMARK  131  A    between atoms: _332  and  _333
REMARK  132  A    between atoms: _333  and  _334
REMARK  133  A    between atoms: _343  and  _345
REMARK  134  A    between atoms: _345  and  _346
REMARK  135  A    between atoms: _345  and  _348
REMARK  136  A    between atoms: _348  and  _349
REMARK  137  A    between atoms: _352  and  _354
REMARK  138  A    between atoms: _354  and  _355
REMARK  139  A    between atoms: _358  and  _360
REMARK  140  A    between atoms: _360  and  _361
REMARK  141  A    between atoms: _360  and  _363
REMARK  142  A    between atoms: _363  and  _364
REMARK  143  A    between atoms: _369  and  _371
REMARK  144  A    between atoms: _371  and  _372
REMARK  145  A    between atoms: _375  and  _377
REMARK  146  A    between atoms: _377  and  _378
REMARK  147  A    between atoms: _377  and  _380
REMARK  148  A    between atoms: _380  and  _381
REMARK  149  A    between atoms: _386  and  _387
REMARK  150  A    between atoms: _389  and  _391
REMARK  151  A    between atoms: _391  and  _392
REMARK  152  A    between atoms: _391  and  _394
REMARK  153  A    between atoms: _394  and  _395
REMARK  154  A    between atoms: _397  and  _399
REMARK  155  A    between atoms: _399  and  _400
REMARK  156  A    between atoms: _399  and  _402
REMARK  157  A    between atoms: _402  and  _403
REMARK  158  A    between atoms: _409  and  _411
REMARK  159  A    between atoms: _411  and  _412
REMARK  160  A    between atoms: _411  and  _414
REMARK  161  A    between atoms: _414  and  _415
REMARK  162  A    between atoms: _421  and  _423
REMARK  163  A    between atoms: _423  and  _424
REMARK  164  A    between atoms: _423  and  _426
REMARK  165  A    between atoms: _426  and  _427
REMARK  166  A    between atoms: _432  and  _434
REMARK  167  A    between atoms: _434  and  _435
REMARK  168  A    between atoms: _437  and  _439
REMARK  169  A    between atoms: _439  and  _440
REMARK  170  A    between atoms: _439  and  _442
REMARK  171  A    between atoms: _445  and  _447
REMARK  172  A    between atoms: _447  and  _448
REMARK  173  A    between atoms: _447  and  _450
REMARK  174  A    between atoms: _450  and  _451
REMARK  175  A    between atoms: _461  and  _463
REMARK  176  A    between atoms: _463  and  _464
REMARK  177  A    between atoms: _467  and  _469
REMARK  178  A    between atoms: _469  and  _470
REMARK  179  A    between atoms: _469  and  _472
REMARK  180  A    between atoms: _472  and  _473
REMARK  181  A    between atoms: _473  and  _474
REMARK  182  A    between atoms: _477  and  _479
REMARK  183  A    between atoms: _479  and  _480
REMARK  184  A    between atoms: _479  and  _482
REMARK  185  A    between atoms: _482  and  _483
REMARK  186  A    between atoms: _485  and  _487
REMARK  187  A    between atoms: _487  and  _488
REMARK  188  A    between atoms: _490  and  _492
REMARK  189  A    between atoms: _492  and  _493
REMARK  190  A    between atoms: _495  and  _497
REMARK  191  A    between atoms: _497  and  _498
REMARK  192  A    between atoms: _497  and  _500
REMARK  193  A    between atoms: _500  and  _501
REMARK  194  A    between atoms: _504  and  _506
REMARK  195  A    between atoms: _506  and  _507
REMARK  196  A    between atoms: _506  and  _509
REMARK  197  A    between atoms: _512  and  _514
REMARK  198  A    between atoms: _514  and  _515
REMARK  199  A    between atoms: _517  and  _519
REMARK  200  A    between atoms: _519  and  _520
REMARK  201  A    between atoms: _523  and  _525
REMARK  202  A    between atoms: _525  and  _526
REMARK  203  A    between atoms: _525  and  _528
REMARK  204  A    between atoms: _528  and  _529
REMARK  205  A    between atoms: _535  and  _536
REMARK  206  A    between atoms: _541  and  _543
REMARK  207  A    between atoms: _543  and  _544
REMARK  208  A    between atoms: _543  and  _546
REMARK  209  A    between atoms: _546  and  _547
REMARK  210  A    between atoms: _550  and  _552
REMARK  211  A    between atoms: _552  and  _553
REMARK  212  A    between atoms: _552  and  _555
REMARK  213  A    between atoms: _555  and  _556
REMARK  214  A    between atoms: _558  and  _560
REMARK  215  A    between atoms: _560  and  _561
REMARK  216  A    between atoms: _560  and  _563
REMARK  217  A    between atoms: _563  and  _564
REMARK  218  A    between atoms: _567  and  _569
REMARK  219  A    between atoms: _569  and  _570
REMARK  220  A    between atoms: _569  and  _572
REMARK  221  A    between atoms: _572  and  _573
REMARK  222  A    between atoms: _578  and  _580
REMARK  223  A    between atoms: _580  and  _581
REMARK  224  A    between atoms: _580  and  _583
REMARK  225  A    between atoms: _583  and  _584
REMARK                            x       y       z     vdW  Elec       q    Type
REMARK                         _______ _______ _______ _____ _____    ______ ____
ROOT
ATOM      1  C   ASN A   3      10.752   3.561  43.219  0.00  0.00    +0.241 C 
ATOM      2  N   GLY A   4      10.978   3.666  44.529  0.00  0.00    -0.295 N 
ATOM      3  H   GLY A   4      11.947   3.533  44.884  0.00  0.00    +0.150 HD
ATOM      4  O   ASN A   3       9.655   3.781  42.704  0.00  0.00    -0.273 OA
ENDROOT
BRANCH   2   5
ATOM      5  CA  GLY A   4       9.911   3.961  45.483  0.00  0.00    +0.176 C 
BRANCH   5   6
ATOM      6  C   GLY A   4       9.437   5.400  45.511  0.00  0.00    +0.243 C 
ATOM      7  N   VAL A   5       8.478   5.674  46.393  0.00  0.00    -0.297 N 
ATOM      8  H   VAL A   5       8.143   4.912  47.017  0.00  0.00    +0.150 HD
ATOM      9  O   GLY A   4       9.928   6.240  44.758  0.00  0.00    -0.273 OA
BRANCH   7  10
ATOM     10  CA  VAL A   5       7.874   7.003  46.522  0.00  0.00    +0.149 C 
BRANCH  10  11
ATOM     11  C   VAL A   5       8.887   8.062  46.964  0.00  0.00    +0.241 C 
ATOM     12  N   TRP A   6       9.916   7.615  47.684  0.00  0.00    -0.297 N 
ATOM     13  H   TRP A   6       9.969   6.596  47.884  0.00  0.00    +0.150 HD
ATOM     14  O   VAL A   5       8.744   9.243  46.644  0.00  0.00    -0.273 OA
BRANCH  12  15
ATOM     15  CA  TRP A   6      10.972   8.476  48.208  0.00  0.00    +0.153 C 
BRANCH  15  16
ATOM     16  C   TRP A   6      11.779   9.182  47.113  0.00  0.00    +0.241 C 
ATOM     17  O   TRP A   6      12.543  10.102  47.401  0.00  0.00    -0.273 OA
ATOM     18  N   ALA A   7      11.593   8.754  45.864  0.00  0.00    -0.298 N 
ATOM     19  H   ALA A   7      10.954   7.949  45.707  0.00  0.00    +0.150 HD
BRANCH  18  20
ATOM     20  CA  ALA A   7      12.246   9.364  44.701  0.00  0.00    +0.137 C 
ATOM     21  CB  ALA A   7      12.200   8.411  43.513  0.00  0.00    +0.030 C 
BRANCH  20  22
ATOM     22  C   ALA A   7      11.648  10.718  44.312  0.00  0.00    +0.227 C 
ATOM     23  O   ALA A   7      12.208  11.434  43.479  0.00  0.00    -0.286 OA
ENDBRANCH  20  22
ENDBRANCH  18  20
ENDBRANCH  15  16
BRANCH  15  24
ATOM     24  CB  TRP A   6      11.898   7.662  49.117  0.00  0.00    +0.057 C 
BRANCH  24  25
ATOM     25  CG  TRP A   6      12.473   6.433  48.453  0.00  0.00    -0.002 A 
ATOM     26  CD2 TRP A   6      11.945   5.098  48.497  0.00  0.00    +0.013 A 
ATOM     27  CE3 TRP A   6      10.830   4.509  49.110  0.00  0.00    +0.001 A 
ATOM     28  CZ3 TRP A   6      10.620   3.146  48.946  0.00  0.00    +0.000 A 
ATOM     29  CH2 TRP A   6      11.496   2.365  48.182  0.00  0.00    +0.001 A 
ATOM     30  CZ2 TRP A   6      12.595   2.912  47.570  0.00  0.00    +0.017 A 
ATOM     31  CE2 TRP A   6      12.808   4.284  47.732  0.00  0.00    +0.056 A 
ATOM     32  NE1 TRP A   6      13.810   5.087  47.255  0.00  0.00    -0.352 N 
ATOM     33  HE1 TRP A   6      14.603   4.772  46.661  0.00  0.00    +0.166 HD
ATOM     34  CD1 TRP A   6      13.600   6.372  47.686  0.00  0.00    +0.068 A 
ENDBRANCH  24  25
ENDBRANCH  15  24
ENDBRANCH  12  15
ENDBRANCH  10  11
BRANCH  10  35
ATOM     35  CB  VAL A   5       6.637   7.000  47.478  0.00  0.00    +0.027 C 
ATOM     36  CG2 VAL A   5       7.026   6.610  48.907  0.00  0.00    +0.002 C 
ATOM     37  CG1 VAL A   5       5.545   6.080  46.950  0.00  0.00    +0.002 C 
ENDBRANCH  10  35
ENDBRANCH   7  10
ENDBRANCH   5   6
ENDBRANCH   2   5
BRANCH   1  38
ATOM     38  CA  ASN A   3      11.940   3.128  42.357  0.00  0.00    +0.158 C 
BRANCH  38  40
ATOM     39  C   PHE A   2      12.101   1.714  40.363  0.00  0.00    +0.241 C 
ATOM     40  N   ASN A   3      11.493   2.690  41.035  0.00  0.00    -0.297 N 
ATOM     41  H   ASN A   3      10.670   3.158  40.604  0.00  0.00    +0.150 HD
ATOM     42  O   PHE A   2      13.148   1.180  40.741  0.00  0.00    -0.273 OA
BRANCH  39  43
ATOM     43  CA  PHE A   2      11.438   1.304  39.047  0.00  0.00    +0.153 C 
BRANCH  43  46
ATOM     44  C   PHE A   1      11.460   3.283  37.635  0.00  0.00    +0.239 C 
ATOM     45  O   PHE A   1      10.529   3.797  38.250  0.00  0.00    -0.274 OA
ATOM     46  N   PHE A   2      11.960   2.091  37.938  0.00  0.00    -0.297 N 
ATOM     47  H   PHE A   2      12.743   1.710  37.370  0.00  0.00    +0.150 HD
BRANCH  44  48
ATOM     48  CA  PHE A   1      12.091   3.992  36.452  0.00  0.00    +0.149 C 
BRANCH  48  49
ATOM     49  N   PHE A   1      11.125   4.044  35.363  0.00  0.00    -0.238 NA
ATOM     50  H   PHE A   1      10.136   4.273  35.591  0.00  0.00    +0.142 HD
ENDBRANCH  48  49
BRANCH  48  51
ATOM     51  CB  PHE A   1      12.514   5.419  36.830  0.00  0.00    +0.053 C 
BRANCH  51  52
ATOM     52  CG  PHE A   1      13.565   5.498  37.905  0.00  0.00    -0.020 A 
ATOM     53  CD2 PHE A   1      13.432   6.410  38.944  0.00  0.00    -0.004 A 
ATOM     54  CE2 PHE A   1      14.401   6.513  39.936  0.00  0.00    -0.000 A 
ATOM     55  CZ  PHE A   1      15.527   5.698  39.891  0.00  0.00    -0.000 A 
ATOM     56  CE1 PHE A   1      15.678   4.789  38.850  0.00  0.00    -0.000 A 
ATOM     57  CD1 PHE A   1      14.704   4.698  37.860  0.00  0.00    -0.004 A 
ENDBRANCH  51  52
ENDBRANCH  48  51
ENDBRANCH  44  48
ENDBRANCH  43  46
BRANCH  43  58
ATOM     58  CB  PHE A   2      11.606  -0.204  38.783  0.00  0.00    +0.055 C 
BRANCH  58  59
ATOM     59  CG  PHE A   2      11.110  -0.646  37.428  0.00  0.00    -0.020 A 
ATOM     60  CD2 PHE A   2       9.751  -0.640  37.132  0.00  0.00    -0.004 A 
ATOM     61  CE2 PHE A   2       9.285  -1.040  35.880  0.00  0.00    -0.000 A 
ATOM     62  CZ  PHE A   2      10.186  -1.454  34.908  0.00  0.00    -0.000 A 
ATOM     63  CE1 PHE A   2      11.548  -1.473  35.199  0.00  0.00    -0.000 A 
ATOM     64  CD1 PHE A   2      12.003  -1.067  36.451  0.00  0.00    -0.004 A 
ENDBRANCH  58  59
ENDBRANCH  43  58
ENDBRANCH  39  43
ENDBRANCH  38  40
BRANCH  38  65
ATOM     65  CB  ASN A   3      12.985   4.244  42.250  0.00  0.00    +0.114 C 
BRANCH  65  66
ATOM     66  CG  ASN A   3      13.883   4.331  43.479  0.00  0.00    +0.222 C 
ATOM     67  OD1 ASN A   3      13.867   3.445  44.337  0.00  0.00    -0.275 OA
ATOM     68  ND2 ASN A   3      14.667   5.403  43.570  0.00  0.00    -0.329 N 
ATOM     69 HD21 ASN A   3      15.298   5.517  44.388  0.00  0.00    +0.145 HD
ATOM     70 HD22 ASN A   3      14.648   6.126  42.823  0.00  0.00    +0.145 HD
ENDBRANCH  65  66
ENDBRANCH  38  65
ENDBRANCH   1  38
TORSDOF 23
REMARK  Name = ../refined-set-2016/2w7y/2w7y_pocket.pdb
REMARK  225 active torsions:
REMARK  status: ('A' for Active; 'I' for Inactive)
REMARK    1  A    between atoms: _1  and  _3
REMARK    2  A    between atoms: _3  and  _4
REMARK    3  A    between atoms: _3  and  _6
REMARK    4  A    between atoms: _6  and  _7
REMARK    5  A    between atoms: _12  and  _13
REMARK    6  A    between atoms: _15  and  _17
REMARK    7  A    between atoms: _17  and  _18
REMARK    8  A    between atoms: _17  and  _20
REMARK    9  A    between atoms: _20  and  _21
REMARK   10  A    between atoms: _26  and  _28
REMARK   11  A    between atoms: _28  and  _29
REMARK   12  A    between atoms: _31  and  _33
REMARK   13  A    between atoms: _33  and  _34
REMARK   14  A    between atoms: _33  and  _36
REMARK   15  A    between atoms: _36  and  _37
REMARK   16  A    between atoms: _42  and  _43
REMARK   17  A    between atoms: _45  and  _47
REMARK   18  A    between atoms: _47  and  _48
REMARK   19  A    between atoms: _47  and  _50
REMARK   20  A    between atoms: _50  and  _51
REMARK   21  A    between atoms: _56  and  _58
REMARK   22  A    between atoms: _58  and  _59
REMARK   23  A    between atoms: _58  and  _61
REMARK   24  A    between atoms: _61  and  _62
REMARK   25  A    between atoms: _67  and  _69
REMARK   26  A    between atoms: _69  and  _70
REMARK   27  A    between atoms: _69  and  _72
REMARK   28  A    between atoms: _72  and  _73
REMARK   29  A    between atoms: _83  and  _85
REMARK   30  A    between atoms: _85  and  _86
REMARK   31  A    between atoms: _85  and  _88
REMARK   32  A    between atoms: _91  and  _93
REMARK   33  A    between atoms: _93  and  _94
REMARK   34  A    between atoms: _97  and  _99
REMARK   35  A    between atoms: _99  and  _100
REMARK   36  A    between atoms: _99  and  _102
REMARK   37  A    between atoms: _102  and  _103
REMARK   38  A    between atoms: _103  and  _104
REMARK   39  A    between atoms: _106  and  _108
REMARK   40  A    between atoms: _108  and  _109
REMARK   41  A    between atoms: _108  and  _111
REMARK   42  A    between atoms: _111  and  _112
REMARK   43  A    between atoms: _117  and  _118
REMARK   44  A    between atoms: _120  and  _122
REMARK   45  A    between atoms: _122  and  _123
REMARK   46  A    between atoms: _122  and  _125
REMARK   47  A    between atoms: _128  and  _130
REMARK   48  A    between atoms: _130  and  _131
REMARK   49  A    between atoms: _130  and  _133
REMARK   50  A    between atoms: _133  and  _134
REMARK   51  A    between atoms: _139  and  _141
REMARK   52  A    between atoms: _141  and  _142
REMARK   53  A    between atoms: _144  and  _146
REMARK   54  A    between atoms: _146  and  _147
REMARK   55  A    between atoms: _146  and  _149
REMARK   56  A    between atoms: _149  and  _150
REMARK   57  A    between atoms: _153  and  _155
REMARK   58  A    between atoms: _155  and  _156
REMARK   59  A    between atoms: _155  and  _158
REMARK   60  A    between atoms: _158  and  _159
REMARK   61  A    between atoms: _159  and  _160
REMARK   62  A    between atoms: _160  and  _161
REMARK   63  A    between atoms: _161  and  _162
REMARK   64  A    between atoms: _166  and  _168
REMARK   65  A    between atoms: _168  and  _169
REMARK   66  A    between atoms: _168  and  _171
REMARK   67  A    between atoms: _171  and  _172
REMARK   68  A    between atoms: _175  and  _177
REMARK   69  A    between atoms: _177  and  _178
REMARK   70  A    between atoms: _177  and  _180
REMARK   71  A    between atoms: _180  and  _181
REMARK   72  A    between atoms: _184  and  _186
REMARK   73  A    between atoms: _186  and  _187
REMARK   74  A    between atoms: _190  and  _192
REMARK   75  A    between atoms: _192  and  _193
REMARK   76  A    between atoms: _195  and  _197
REMARK   77  A    between atoms: _197  and  _198
REMARK   78  A    between atoms: _197  and  _200
REMARK   79  A    between atoms: _200  and  _201
REMARK   80  A    between atoms: _206  and  _208
REMARK   81  A    between atoms: _208  and  _209
REMARK   82  A    between atoms: _212  and  _214
REMARK   83  A    between atoms: _214  and  _215
REMARK   84  A    between atoms: _214  and  _217
REMARK   85  A    between atoms: _217  and  _218
REMARK   86  A    between atoms: _223  and  _225
REMARK   87  A    between atoms: _225  and  _226
REMARK   88  A    between atoms: _225  and  _228
REMARK   89  A    between atoms: _228  and  _229
REMARK   90  A    between atoms: _229  and  _230
REMARK   91  A    between atoms: _233  and  _235
REMARK   92  A    between atoms: _235  and  _236
REMARK   93  A    between atoms: _235  and  _238
REMARK   94  A    between atoms: _238  and  _239
REMARK   95  A    between atoms: _239  and  _240
REMARK   96  A    between atoms: _245  and  _247
REMARK   97  A    between atoms: _247  and  _248
REMARK   98  A    between atoms: _247  and  _250
REMARK   99  A    between atoms: _250  and  _251
REMARK  100  A    between atoms: _254  and  _256
REMARK  101  A    between atoms: _256  and  _257
REMARK  102  A    between atoms: _256  and  _259
REMARK  103  A    between atoms: _259  and  _260
REMARK  104  A    between atoms: _266  and  _268
REMARK  105  A    between atoms: _268  and  _269
REMARK  106  A    between atoms: _268  and  _271
REMARK  107  A    between atoms: _271  and  _272
REMARK  108  A    between atoms: _275  and  _277
REMARK  109  A    between atoms: _277  and  _278
REMARK  110  A    between atoms: _277  and  _280
REMARK  111  A    between atoms: _280  and  _281
REMARK  112  A    between atoms: _281  and  _282
REMARK  113  A    between atoms: _284  and  _286
REMARK  114  A    between atoms: _286  and  _287
REMARK  115  A    between atoms: _286  and  _289
REMARK  116  A    between atoms: _289  and  _290
REMARK  117  A    between atoms: _300  and  _302
REMARK  118  A    between atoms: _302  and  _303
REMARK  119  A    between atoms: _302  and  _305
REMARK  120  A    between atoms: _305  and  _306
REMARK  121  A    between atoms: _306  and  _307
REMARK  122  A    between atoms: _311  and  _312
REMARK  123  A    between atoms: _317  and  _319
REMARK  124  A    between atoms: _319  and  _320
REMARK  125  A    between atoms: _319  and  _322
REMARK  126  A    between atoms: _322  and  _323
REMARK  127  A    between atoms: _326  and  _328
REMARK  128  A    between atoms: _328  and  _329
REMARK  129  A    between atoms: _328  and  _331
REMARK  130  A    between atoms: _331  and  _332
REMARK  131  A    between atoms: _332  and  _333
REMARK  132  A    between atoms: _333  and  _334
REMARK  133  A    between atoms: _343  and  _345
REMARK  134  A    between atoms: _345  and  _346
REMARK  135  A    between atoms: _345  and  _348
REMARK  136  A    between atoms: _348  and  _349
REMARK  137  A    between atoms: _352  and  _354
REMARK  138  A    between atoms: _354  and  _355
REMARK  139  A    between atoms: _358  and  _360
REMARK  140  A    between atoms: _360  and  _361
REMARK  141  A    between atoms: _360  and  _363
REMARK  142  A    between atoms: _363  and  _364
REMARK  143  A    between atoms: _369  and  _371
REMARK  144  A    between atoms: _371  and  _372
REMARK  145  A    between atoms: _375  and  _377
REMARK  146  A    between atoms: _377  and  _378
REMARK  147  A    between atoms: _377  and  _380
REMARK  148  A    between atoms: _380  and  _381
REMARK  149  A    between atoms: _386  and  _387
REMARK  150  A    between atoms: _389  and  _391
REMARK  151  A    between atoms: _391  and  _392
REMARK  152  A    between atoms: _391  and  _394
REMARK  153  A    between atoms: _394  and  _395
REMARK  154  A    between atoms: _397  and  _399
REMARK  155  A    between atoms: _399  and  _400
REMARK  156  A    between atoms: _399  and  _402
REMARK  157  A    between atoms: _402  and  _403
REMARK  158  A    between atoms: _409  and  _411
REMARK  159  A    between atoms: _411  and  _412
REMARK  160  A    between atoms: _411  and  _414
REMARK  161  A    between atoms: _414  and  _415
REMARK  162  A    between atoms: _421  and  _423
REMARK  163  A    between atoms: _423  and  _424
REMARK  164  A    between atoms: _423  and  _426
REMARK  165  A    between atoms: _426  and  _427
REMARK  166  A    between atoms: _432  and  _434
REMARK  167  A    between atoms: _434  and  _435
REMARK  168  A    between atoms: _437  and  _439
REMARK  169  A    between atoms: _439  and  _440
REMARK  170  A    between atoms: _439  and  _442
REMARK  171  A    between atoms: _445  and  _447
REMARK  172  A    between atoms: _447  and  _448
REMARK  173  A    between atoms: _447  and  _450
REMARK  174  A    between atoms: _450  and  _451
REMARK  175  A    between atoms: _461  and  _463
REMARK  176  A    between atoms: _463  and  _464
REMARK  177  A    between atoms: _467  and  _469
REMARK  178  A    between atoms: _469  and  _470
REMARK  179  A    between atoms: _469  and  _472
REMARK  180  A    between atoms: _472  and  _473
REMARK  181  A    between atoms: _473  and  _474
REMARK  182  A    between atoms: _477  and  _479
REMARK  183  A    between atoms: _479  and  _480
REMARK  184  A    between atoms: _479  and  _482
REMARK  185  A    between atoms: _482  and  _483
REMARK  186  A    between atoms: _485  and  _487
REMARK  187  A    between atoms: _487  and  _488
REMARK  188  A    between atoms: _490  and  _492
REMARK  189  A    between atoms: _492  and  _493
REMARK  190  A    between atoms: _495  and  _497
REMARK  191  A    between atoms: _497  and  _498
REMARK  192  A    between atoms: _497  and  _500
REMARK  193  A    between atoms: _500  and  _501
REMARK  194  A    between atoms: _504  and  _506
REMARK  195  A    between atoms: _506  and  _507
REMARK  196  A    between atoms: _506  and  _509
REMARK  197  A    between atoms: _512  and  _514
REMARK  198  A    between atoms: _514  and  _515
REMARK  199  A    between atoms: _517  and  _519
REMARK  200  A    between atoms: _519  and  _520
REMARK  201  A    between atoms: _523  and  _525
REMARK  202  A    between atoms: _525  and  _526
REMARK  203  A    between atoms: _525  and  _528
REMARK  204  A    between atoms: _528  and  _529
REMARK  205  A    between atoms: _535  and  _536
REMARK  206  A    between atoms: _541  and  _543
REMARK  207  A    between atoms: _543  and  _544
REMARK  208  A    between atoms: _543  and  _546
REMARK  209  A    between atoms: _546  and  _547
REMARK  210  A    between atoms: _550  and  _552
REMARK  211  A    between atoms: _552  and  _553
REMARK  212  A    between atoms: _552  and  _555
REMARK  213  A    between atoms: _555  and  _556
REMARK  214  A    between atoms: _558  and  _560
REMARK  215  A    between atoms: _560  and  _561
REMARK  216  A    between atoms: _560  and  _563
REMARK  217  A    between atoms: _563  and  _564
REMARK  218  A    between atoms: _567  and  _569
REMARK  219  A    between atoms: _569  and  _570
REMARK  220  A    between atoms: _569  and  _572
REMARK  221  A    between atoms: _572  and  _573
REMARK  222  A    between atoms: _578  and  _580
REMARK  223  A    between atoms: _580  and  _581
REMARK  224  A    between atoms: _580  and  _583
REMARK  225  A    between atoms: _583  and  _584
REMARK                            x       y       z     vdW  Elec       q    Type
REMARK                         _______ _______ _______ _____ _____    ______ ____
ROOT
ATOM      1  CA  GLU A   1      14.453  14.097  42.597  0.00  0.00    +0.134 C 
ENDROOT
BRANCH   1   2
ATOM      2  N   GLU A   1      13.609  14.083  43.792  0.00  0.00    -0.239 NA
ATOM      3  H   GLU A   1      13.396  13.171  44.243  0.00  0.00    +0.142 HD
ENDBRANCH   1   2
BRANCH   1   4
ATOM      4  C   GLU A   1      13.593  14.139  41.343  0.00  0.00    +0.224 C 
ATOM      5  O   GLU A   1      14.022  14.605  40.286  0.00  0.00    -0.287 OA
ENDBRANCH   1   4
BRANCH   1   6
ATOM      6  CB  GLU A   1      15.351  12.854  42.561  0.00  0.00    +0.037 C 
BRANCH   6   7
ATOM      7  CG  GLU A   1      16.418  12.813  43.645  0.00  0.00    +0.116 C 
BRANCH   7   8
ATOM      8  CD  GLU A   1      17.459  13.896  43.476  0.00  0.00    +0.365 C 
ATOM      9  OE2 GLU A   1      17.632  14.707  44.415  0.00  0.00    -0.246 OA
ATOM     10  OE1 GLU A   1      18.099  13.944  42.401  0.00  0.00    -0.246 OA
ENDBRANCH   7   8
ENDBRANCH   6   7
ENDBRANCH   1   6
TORSDOF 5
REMARK  Name = ../refined-set-2016/2w7y/2w7y_pocket.pdb
REMARK  225 active torsions:
REMARK  status: ('A' for Active; 'I' for Inactive)
REMARK    1  A    between atoms: _1  and  _3
REMARK    2  A    between atoms: _3  and  _4
REMARK    3  A    between atoms: _3  and  _6
REMARK    4  A    between atoms: _6  and  _7
REMARK    5  A    between atoms: _12  and  _13
REMARK    6  A    between atoms: _15  and  _17
REMARK    7  A    between atoms: _17  and  _18
REMARK    8  A    between atoms: _17  and  _20
REMARK    9  A    between atoms: _20  and  _21
REMARK   10  A    between atoms: _26  and  _28
REMARK   11  A    between atoms: _28  and  _29
REMARK   12  A    between atoms: _31  and  _33
REMARK   13  A    between atoms: _33  and  _34
REMARK   14  A    between atoms: _33  and  _36
REMARK   15  A    between atoms: _36  and  _37
REMARK   16  A    between atoms: _42  and  _43
REMARK   17  A    between atoms: _45  and  _47
REMARK   18  A    between atoms: _47  and  _48
REMARK   19  A    between atoms: _47  and  _50
REMARK   20  A    between atoms: _50  and  _51
REMARK   21  A    between atoms: _56  and  _58
REMARK   22  A    between atoms: _58  and  _59
REMARK   23  A    between atoms: _58  and  _61
REMARK   24  A    between atoms: _61  and  _62
REMARK   25  A    between atoms: _67  and  _69
REMARK   26  A    between atoms: _69  and  _70
REMARK   27  A    between atoms: _69  and  _72
REMARK   28  A    between atoms: _72  and  _73
REMARK   29  A    between atoms: _83  and  _85
REMARK   30  A    between atoms: _85  and  _86
REMARK   31  A    between atoms: _85  and  _88
REMARK   32  A    between atoms: _91  and  _93
REMARK   33  A    between atoms: _93  and  _94
REMARK   34  A    between atoms: _97  and  _99
REMARK   35  A    between atoms: _99  and  _100
REMARK   36  A    between atoms: _99  and  _102
REMARK   37  A    between atoms: _102  and  _103
REMARK   38  A    between atoms: _103  and  _104
REMARK   39  A    between atoms: _106  and  _108
REMARK   40  A    between atoms: _108  and  _109
REMARK   41  A    between atoms: _108  and  _111
REMARK   42  A    between atoms: _111  and  _112
REMARK   43  A    between atoms: _117  and  _118
REMARK   44  A    between atoms: _120  and  _122
REMARK   45  A    between atoms: _122  and  _123
REMARK   46  A    between atoms: _122  and  _125
REMARK   47  A    between atoms: _128  and  _130
REMARK   48  A    between atoms: _130  and  _131
REMARK   49  A    between atoms: _130  and  _133
REMARK   50  A    between atoms: _133  and  _134
REMARK   51  A    between atoms: _139  and  _141
REMARK   52  A    between atoms: _141  and  _142
REMARK   53  A    between atoms: _144  and  _146
REMARK   54  A    between atoms: _146  and  _147
REMARK   55  A    between atoms: _146  and  _149
REMARK   56  A    between atoms: _149  and  _150
REMARK   57  A    between atoms: _153  and  _155
REMARK   58  A    between atoms: _155  and  _156
REMARK   59  A    between atoms: _155  and  _158
REMARK   60  A    between atoms: _158  and  _159
REMARK   61  A    between atoms: _159  and  _160
REMARK   62  A    between atoms: _160  and  _161
REMARK   63  A    between atoms: _161  and  _162
REMARK   64  A    between atoms: _166  and  _168
REMARK   65  A    between atoms: _168  and  _169
REMARK   66  A    between atoms: _168  and  _171
REMARK   67  A    between atoms: _171  and  _172
REMARK   68  A    between atoms: _175  and  _177
REMARK   69  A    between atoms: _177  and  _178
REMARK   70  A    between atoms: _177  and  _180
REMARK   71  A    between atoms: _180  and  _181
REMARK   72  A    between atoms: _184  and  _186
REMARK   73  A    between atoms: _186  and  _187
REMARK   74  A    between atoms: _190  and  _192
REMARK   75  A    between atoms: _192  and  _193
REMARK   76  A    between atoms: _195  and  _197
REMARK   77  A    between atoms: _197  and  _198
REMARK   78  A    between atoms: _197  and  _200
REMARK   79  A    between atoms: _200  and  _201
REMARK   80  A    between atoms: _206  and  _208
REMARK   81  A    between atoms: _208  and  _209
REMARK   82  A    between atoms: _212  and  _214
REMARK   83  A    between atoms: _214  and  _215
REMARK   84  A    between atoms: _214  and  _217
REMARK   85  A    between atoms: _217  and  _218
REMARK   86  A    between atoms: _223  and  _225
REMARK   87  A    between atoms: _225  and  _226
REMARK   88  A    between atoms: _225  and  _228
REMARK   89  A    between atoms: _228  and  _229
REMARK   90  A    between atoms: _229  and  _230
REMARK   91  A    between atoms: _233  and  _235
REMARK   92  A    between atoms: _235  and  _236
REMARK   93  A    between atoms: _235  and  _238
REMARK   94  A    between atoms: _238  and  _239
REMARK   95  A    between atoms: _239  and  _240
REMARK   96  A    between atoms: _245  and  _247
REMARK   97  A    between atoms: _247  and  _248
REMARK   98  A    between atoms: _247  and  _250
REMARK   99  A    between atoms: _250  and  _251
REMARK  100  A    between atoms: _254  and  _256
REMARK  101  A    between atoms: _256  and  _257
REMARK  102  A    between atoms: _256  and  _259
REMARK  103  A    between atoms: _259  and  _260
REMARK  104  A    between atoms: _266  and  _268
REMARK  105  A    between atoms: _268  and  _269
REMARK  106  A    between atoms: _268  and  _271
REMARK  107  A    between atoms: _271  and  _272
REMARK  108  A    between atoms: _275  and  _277
REMARK  109  A    between atoms: _277  and  _278
REMARK  110  A    between atoms: _277  and  _280
REMARK  111  A    between atoms: _280  and  _281
REMARK  112  A    between atoms: _281  and  _282
REMARK  113  A    between atoms: _284  and  _286
REMARK  114  A    between atoms: _286  and  _287
REMARK  115  A    between atoms: _286  and  _289
REMARK  116  A    between atoms: _289  and  _290
REMARK  117  A    between atoms: _300  and  _302
REMARK  118  A    between atoms: _302  and  _303
REMARK  119  A    between atoms: _302  and  _305
REMARK  120  A    between atoms: _305  and  _306
REMARK  121  A    between atoms: _306  and  _307
REMARK  122  A    between atoms: _311  and  _312
REMARK  123  A    between atoms: _317  and  _319
REMARK  124  A    between atoms: _319  and  _320
REMARK  125  A    between atoms: _319  and  _322
REMARK  126  A    between atoms: _322  and  _323
REMARK  127  A    between atoms: _326  and  _328
REMARK  128  A    between atoms: _328  and  _329
REMARK  129  A    between atoms: _328  and  _331
REMARK  130  A    between atoms: _331  and  _332
REMARK  131  A    between atoms: _332  and  _333
REMARK  132  A    between atoms: _333  and  _334
REMARK  133  A    between atoms: _343  and  _345
REMARK  134  A    between atoms: _345  and  _346
REMARK  135  A    between atoms: _345  and  _348
REMARK  136  A    between atoms: _348  and  _349
REMARK  137  A    between atoms: _352  and  _354
REMARK  138  A    between atoms: _354  and  _355
REMARK  139  A    between atoms: _358  and  _360
REMARK  140  A    between atoms: _360  and  _361
REMARK  141  A    between atoms: _360  and  _363
REMARK  142  A    between atoms: _363  and  _364
REMARK  143  A    between atoms: _369  and  _371
REMARK  144  A    between atoms: _371  and  _372
REMARK  145  A    between atoms: _375  and  _377
REMARK  146  A    between atoms: _377  and  _378
REMARK  147  A    between atoms: _377  and  _380
REMARK  148  A    between atoms: _380  and  _381
REMARK  149  A    between atoms: _386  and  _387
REMARK  150  A    between atoms: _389  and  _391
REMARK  151  A    between atoms: _391  and  _392
REMARK  152  A    between atoms: _391  and  _394
REMARK  153  A    between atoms: _394  and  _395
REMARK  154  A    between atoms: _397  and  _399
REMARK  155  A    between atoms: _399  and  _400
REMARK  156  A    between atoms: _399  and  _402
REMARK  157  A    between atoms: _402  and  _403
REMARK  158  A    between atoms: _409  and  _411
REMARK  159  A    between atoms: _411  and  _412
REMARK  160  A    between atoms: _411  and  _414
REMARK  161  A    between atoms: _414  and  _415
REMARK  162  A    between atoms: _421  and  _423
REMARK  163  A    between atoms: _423  and  _424
REMARK  164  A    between atoms: _423  and  _426
REMARK  165  A    between atoms: _426  and  _427
REMARK  166  A    between atoms: _432  and  _434
REMARK  167  A    between atoms: _434  and  _435
REMARK  168  A    between atoms: _437  and  _439
REMARK  169  A    between atoms: _439  and  _440
REMARK  170  A    between atoms: _439  and  _442
REMARK  171  A    between atoms: _445  and  _447
REMARK  172  A    between atoms: _447  and  _448
REMARK  173  A    between atoms: _447  and  _450
REMARK  174  A    between atoms: _450  and  _451
REMARK  175  A    between atoms: _461  and  _463
REMARK  176  A    between atoms: _463  and  _464
REMARK  177  A    between atoms: _467  and  _469
REMARK  178  A    between atoms: _469  and  _470
REMARK  179  A    between atoms: _469  and  _472
REMARK  180  A    between atoms: _472  and  _473
REMARK  181  A    between atoms: _473  and  _474
REMARK  182  A    between atoms: _477  and  _479
REMARK  183  A    between atoms: _479  and  _480
REMARK  184  A    between atoms: _479  and  _482
REMARK  185  A    between atoms: _482  and  _483
REMARK  186  A    between atoms: _485  and  _487
REMARK  187  A    between atoms: _487  and  _488
REMARK  188  A    between atoms: _490  and  _492
REMARK  189  A    between atoms: _492  and  _493
REMARK  190  A    between atoms: _495  and  _497
REMARK  191  A    between atoms: _497  and  _498
REMARK  192  A    between atoms: _497  and  _500
REMARK  193  A    between atoms: _500  and  _501
REMARK  194  A    between atoms: _504  and  _506
REMARK  195  A    between atoms: _506  and  _507
REMARK  196  A    between atoms: _506  and  _509
REMARK  197  A    between atoms: _512  and  _514
REMARK  198  A    between atoms: _514  and  _515
REMARK  199  A    between atoms: _517  and  _519
REMARK  200  A    between atoms: _519  and  _520
REMARK  201  A    between atoms: _523  and  _525
REMARK  202  A    between atoms: _525  and  _526
REMARK  203  A    between atoms: _525  and  _528
REMARK  204  A    between atoms: _528  and  _529
REMARK  205  A    between atoms: _535  and  _536
REMARK  206  A    between atoms: _541  and  _543
REMARK  207  A    between atoms: _543  and  _544
REMARK  208  A    between atoms: _543  and  _546
REMARK  209  A    between atoms: _546  and  _547
REMARK  210  A    between atoms: _550  and  _552
REMARK  211  A    between atoms: _552  and  _553
REMARK  212  A    between atoms: _552  and  _555
REMARK  213  A    between atoms: _555  and  _556
REMARK  214  A    between atoms: _558  and  _560
REMARK  215  A    between atoms: _560  and  _561
REMARK  216  A    between atoms: _560  and  _563
REMARK  217  A    between atoms: _563  and  _564
REMARK  218  A    between atoms: _567  and  _569
REMARK  219  A    between atoms: _569  and  _570
REMARK  220  A    between atoms: _569  and  _572
REMARK  221  A    between atoms: _572  and  _573
REMARK  222  A    between atoms: _578  and  _580
REMARK  223  A    between atoms: _580  and  _581
REMARK  224  A    between atoms: _580  and  _583
REMARK  225  A    between atoms: _583  and  _584
REMARK                            x       y       z     vdW  Elec       q    Type
REMARK                         _______ _______ _______ _____ _____    ______ ____
ROOT
ATOM      1  C   SER A   1      10.041  -1.742  55.360  0.00  0.00    +0.241 C 
ATOM      2  O   SER A   1      10.470  -0.588  55.289  0.00  0.00    -0.274 OA
ATOM      3  N   GLY A   2      10.762  -2.823  55.062  0.00  0.00    -0.295 N 
ATOM      4  H   GLY A   2      10.268  -3.729  54.933  0.00  0.00    +0.150 HD
ENDROOT
BRANCH   1   5
ATOM      5  CA  SER A   1       8.606  -2.008  55.776  0.00  0.00    +0.174 C 
BRANCH   5   6
ATOM      6  N   SER A   1       7.954  -2.859  54.799  0.00  0.00    -0.236 NA
ATOM      7  H   SER A   1       7.968  -3.889  54.944  0.00  0.00    +0.142 HD
ENDBRANCH   5   6
BRANCH   5   8
ATOM      8  CB  SER A   1       8.581  -2.676  57.151  0.00  0.00    +0.163 C 
BRANCH   8   9
ATOM      9  OG  SER A   1       7.265  -3.070  57.496  0.00  0.00    -0.380 OA
ATOM     10  H   SER A   1       7.273  -3.499  58.388  0.00  0.00    +0.211 HD
ENDBRANCH   8   9
ENDBRANCH   5   8
ENDBRANCH   1   5
BRANCH   3  11
ATOM     11  CA  GLY A   2      12.212  -2.793  54.909  0.00  0.00    +0.176 C 
BRANCH  11  12
ATOM     12  C   GLY A   2      12.883  -2.934  56.267  0.00  0.00    +0.243 C 
ATOM     13  O   GLY A   2      12.225  -2.859  57.305  0.00  0.00    -0.273 OA
ATOM     14  N   GLY A   3      14.193  -3.160  56.261  0.00  0.00    -0.296 N 
ATOM     15  H   GLY A   3      14.663  -3.403  55.366  0.00  0.00    +0.150 HD
BRANCH  14  16
ATOM     16  CA  GLY A   3      14.986  -3.075  57.482  0.00  0.00    +0.163 C 
BRANCH  16  17
ATOM     17  C   GLY A   3      15.277  -1.615  57.774  0.00  0.00    +0.229 C 
ATOM     18  O   GLY A   3      15.350  -0.787  56.858  0.00  0.00    -0.286 OA
ENDBRANCH  16  17
ENDBRANCH  14  16
ENDBRANCH  11  12
ENDBRANCH   3  11
TORSDOF 8
REMARK  Name = ../refined-set-2016/2w7y/2w7y_pocket.pdb
REMARK  225 active torsions:
REMARK  status: ('A' for Active; 'I' for Inactive)
REMARK    1  A    between atoms: _1  and  _3
REMARK    2  A    between atoms: _3  and  _4
REMARK    3  A    between atoms: _3  and  _6
REMARK    4  A    between atoms: _6  and  _7
REMARK    5  A    between atoms: _12  and  _13
REMARK    6  A    between atoms: _15  and  _17
REMARK    7  A    between atoms: _17  and  _18
REMARK    8  A    between atoms: _17  and  _20
REMARK    9  A    between atoms: _20  and  _21
REMARK   10  A    between atoms: _26  and  _28
REMARK   11  A    between atoms: _28  and  _29
REMARK   12  A    between atoms: _31  and  _33
REMARK   13  A    between atoms: _33  and  _34
REMARK   14  A    between atoms: _33  and  _36
REMARK   15  A    between atoms: _36  and  _37
REMARK   16  A    between atoms: _42  and  _43
REMARK   17  A    between atoms: _45  and  _47
REMARK   18  A    between atoms: _47  and  _48
REMARK   19  A    between atoms: _47  and  _50
REMARK   20  A    between atoms: _50  and  _51
REMARK   21  A    between atoms: _56  and  _58
REMARK   22  A    between atoms: _58  and  _59
REMARK   23  A    between atoms: _58  and  _61
REMARK   24  A    between atoms: _61  and  _62
REMARK   25  A    between atoms: _67  and  _69
REMARK   26  A    between atoms: _69  and  _70
REMARK   27  A    between atoms: _69  and  _72
REMARK   28  A    between atoms: _72  and  _73
REMARK   29  A    between atoms: _83  and  _85
REMARK   30  A    between atoms: _85  and  _86
REMARK   31  A    between atoms: _85  and  _88
REMARK   32  A    between atoms: _91  and  _93
REMARK   33  A    between atoms: _93  and  _94
REMARK   34  A    between atoms: _97  and  _99
REMARK   35  A    between atoms: _99  and  _100
REMARK   36  A    between atoms: _99  and  _102
REMARK   37  A    between atoms: _102  and  _103
REMARK   38  A    between atoms: _103  and  _104
REMARK   39  A    between atoms: _106  and  _108
REMARK   40  A    between atoms: _108  and  _109
REMARK   41  A    between atoms: _108  and  _111
REMARK   42  A    between atoms: _111  and  _112
REMARK   43  A    between atoms: _117  and  _118
REMARK   44  A    between atoms: _120  and  _122
REMARK   45  A    between atoms: _122  and  _123
REMARK   46  A    between atoms: _122  and  _125
REMARK   47  A    between atoms: _128  and  _130
REMARK   48  A    between atoms: _130  and  _131
REMARK   49  A    between atoms: _130  and  _133
REMARK   50  A    between atoms: _133  and  _134
REMARK   51  A    between atoms: _139  and  _141
REMARK   52  A    between atoms: _141  and  _142
REMARK   53  A    between atoms: _144  and  _146
REMARK   54  A    between atoms: _146  and  _147
REMARK   55  A    between atoms: _146  and  _149
REMARK   56  A    between atoms: _149  and  _150
REMARK   57  A    between atoms: _153  and  _155
REMARK   58  A    between atoms: _155  and  _156
REMARK   59  A    between atoms: _155  and  _158
REMARK   60  A    between atoms: _158  and  _159
REMARK   61  A    between atoms: _159  and  _160
REMARK   62  A    between atoms: _160  and  _161
REMARK   63  A    between atoms: _161  and  _162
REMARK   64  A    between atoms: _166  and  _168
REMARK   65  A    between atoms: _168  and  _169
REMARK   66  A    between atoms: _168  and  _171
REMARK   67  A    between atoms: _171  and  _172
REMARK   68  A    between atoms: _175  and  _177
REMARK   69  A    between atoms: _177  and  _178
REMARK   70  A    between atoms: _177  and  _180
REMARK   71  A    between atoms: _180  and  _181
REMARK   72  A    between atoms: _184  and  _186
REMARK   73  A    between atoms: _186  and  _187
REMARK   74  A    between atoms: _190  and  _192
REMARK   75  A    between atoms: _192  and  _193
REMARK   76  A    between atoms: _195  and  _197
REMARK   77  A    between atoms: _197  and  _198
REMARK   78  A    between atoms: _197  and  _200
REMARK   79  A    between atoms: _200  and  _201
REMARK   80  A    between atoms: _206  and  _208
REMARK   81  A    between atoms: _208  and  _209
REMARK   82  A    between atoms: _212  and  _214
REMARK   83  A    between atoms: _214  and  _215
REMARK   84  A    between atoms: _214  and  _217
REMARK   85  A    between atoms: _217  and  _218
REMARK   86  A    between atoms: _223  and  _225
REMARK   87  A    between atoms: _225  and  _226
REMARK   88  A    between atoms: _225  and  _228
REMARK   89  A    between atoms: _228  and  _229
REMARK   90  A    between atoms: _229  and  _230
REMARK   91  A    between atoms: _233  and  _235
REMARK   92  A    between atoms: _235  and  _236
REMARK   93  A    between atoms: _235  and  _238
REMARK   94  A    between atoms: _238  and  _239
REMARK   95  A    between atoms: _239  and  _240
REMARK   96  A    between atoms: _245  and  _247
REMARK   97  A    between atoms: _247  and  _248
REMARK   98  A    between atoms: _247  and  _250
REMARK   99  A    between atoms: _250  and  _251
REMARK  100  A    between atoms: _254  and  _256
REMARK  101  A    between atoms: _256  and  _257
REMARK  102  A    between atoms: _256  and  _259
REMARK  103  A    between atoms: _259  and  _260
REMARK  104  A    between atoms: _266  and  _268
REMARK  105  A    between atoms: _268  and  _269
REMARK  106  A    between atoms: _268  and  _271
REMARK  107  A    between atoms: _271  and  _272
REMARK  108  A    between atoms: _275  and  _277
REMARK  109  A    between atoms: _277  and  _278
REMARK  110  A    between atoms: _277  and  _280
REMARK  111  A    between atoms: _280  and  _281
REMARK  112  A    between atoms: _281  and  _282
REMARK  113  A    between atoms: _284  and  _286
REMARK  114  A    between atoms: _286  and  _287
REMARK  115  A    between atoms: _286  and  _289
REMARK  116  A    between atoms: _289  and  _290
REMARK  117  A    between atoms: _300  and  _302
REMARK  118  A    between atoms: _302  and  _303
REMARK  119  A    between atoms: _302  and  _305
REMARK  120  A    between atoms: _305  and  _306
REMARK  121  A    between atoms: _306  and  _307
REMARK  122  A    between atoms: _311  and  _312
REMARK  123  A    between atoms: _317  and  _319
REMARK  124  A    between atoms: _319  and  _320
REMARK  125  A    between atoms: _319  and  _322
REMARK  126  A    between atoms: _322  and  _323
REMARK  127  A    between atoms: _326  and  _328
REMARK  128  A    between atoms: _328  and  _329
REMARK  129  A    between atoms: _328  and  _331
REMARK  130  A    between atoms: _331  and  _332
REMARK  131  A    between atoms: _332  and  _333
REMARK  132  A    between atoms: _333  and  _334
REMARK  133  A    between atoms: _343  and  _345
REMARK  134  A    between atoms: _345  and  _346
REMARK  135  A    between atoms: _345  and  _348
REMARK  136  A    between atoms: _348  and  _349
REMARK  137  A    between atoms: _352  and  _354
REMARK  138  A    between atoms: _354  and  _355
REMARK  139  A    between atoms: _358  and  _360
REMARK  140  A    between atoms: _360  and  _361
REMARK  141  A    between atoms: _360  and  _363
REMARK  142  A    between atoms: _363  and  _364
REMARK  143  A    between atoms: _369  and  _371
REMARK  144  A    between atoms: _371  and  _372
REMARK  145  A    between atoms: _375  and  _377
REMARK  146  A    between atoms: _377  and  _378
REMARK  147  A    between atoms: _377  and  _380
REMARK  148  A    between atoms: _380  and  _381
REMARK  149  A    between atoms: _386  and  _387
REMARK  150  A    between atoms: _389  and  _391
REMARK  151  A    between atoms: _391  and  _392
REMARK  152  A    between atoms: _391  and  _394
REMARK  153  A    between atoms: _394  and  _395
REMARK  154  A    between atoms: _397  and  _399
REMARK  155  A    between atoms: _399  and  _400
REMARK  156  A    between atoms: _399  and  _402
REMARK  157  A    between atoms: _402  and  _403
REMARK  158  A    between atoms: _409  and  _411
REMARK  159  A    between atoms: _411  and  _412
REMARK  160  A    between atoms: _411  and  _414
REMARK  161  A    between atoms: _414  and  _415
REMARK  162  A    between atoms: _421  and  _423
REMARK  163  A    between atoms: _423  and  _424
REMARK  164  A    between atoms: _423  and  _426
REMARK  165  A    between atoms: _426  and  _427
REMARK  166  A    between atoms: _432  and  _434
REMARK  167  A    between atoms: _434  and  _435
REMARK  168  A    between atoms: _437  and  _439
REMARK  169  A    between atoms: _439  and  _440
REMARK  170  A    between atoms: _439  and  _442
REMARK  171  A    between atoms: _445  and  _447
REMARK  172  A    between atoms: _447  and  _448
REMARK  173  A    between atoms: _447  and  _450
REMARK  174  A    between atoms: _450  and  _451
REMARK  175  A    between atoms: _461  and  _463
REMARK  176  A    between atoms: _463  and  _464
REMARK  177  A    between atoms: _467  and  _469
REMARK  178  A    between atoms: _469  and  _470
REMARK  179  A    between atoms: _469  and  _472
REMARK  180  A    between atoms: _472  and  _473
REMARK  181  A    between atoms: _473  and  _474
REMARK  182  A    between atoms: _477  and  _479
REMARK  183  A    between atoms: _479  and  _480
REMARK  184  A    between atoms: _479  and  _482
REMARK  185  A    between atoms: _482  and  _483
REMARK  186  A    between atoms: _485  and  _487
REMARK  187  A    between atoms: _487  and  _488
REMARK  188  A    between atoms: _490  and  _492
REMARK  189  A    between atoms: _492  and  _493
REMARK  190  A    between atoms: _495  and  _497
REMARK  191  A    between atoms: _497  and  _498
REMARK  192  A    between atoms: _497  and  _500
REMARK  193  A    between atoms: _500  and  _501
REMARK  194  A    between atoms: _504  and  _506
REMARK  195  A    between atoms: _506  and  _507
REMARK  196  A    between atoms: _506  and  _509
REMARK  197  A    between atoms: _512  and  _514
REMARK  198  A    between atoms: _514  and  _515
REMARK  199  A    between atoms: _517  and  _519
REMARK  200  A    between atoms: _519  and  _520
REMARK  201  A    between atoms: _523  and  _525
REMARK  202  A    between atoms: _525  and  _526
REMARK  203  A    between atoms: _525  and  _528
REMARK  204  A    between atoms: _528  and  _529
REMARK  205  A    between atoms: _535  and  _536
REMARK  206  A    between atoms: _541  and  _543
REMARK  207  A    between atoms: _543  and  _544
REMARK  208  A    between atoms: _543  and  _546
REMARK  209  A    between atoms: _546  and  _547
REMARK  210  A    between atoms: _550  and  _552
REMARK  211  A    between atoms: _552  and  _553
REMARK  212  A    between atoms: _552  and  _555
REMARK  213  A    between atoms: _555  and  _556
REMARK  214  A    between atoms: _558  and  _560
REMARK  215  A    between atoms: _560  and  _561
REMARK  216  A    between atoms: _560  and  _563
REMARK  217  A    between atoms: _563  and  _564
REMARK  218  A    between atoms: _567  and  _569
REMARK  219  A    between atoms: _569  and  _570
REMARK  220  A    between atoms: _569  and  _572
REMARK  221  A    between atoms: _572  and  _573
REMARK  222  A    between atoms: _578  and  _580
REMARK  223  A    between atoms: _580  and  _581
REMARK  224  A    between atoms: _580  and  _583
REMARK  225  A    between atoms: _583  and  _584
REMARK                            x       y       z     vdW  Elec       q    Type
REMARK                         _______ _______ _______ _____ _____    ______ ____
ROOT
ATOM      1  CA  ILE A   1      10.208  12.587  57.303  0.00  0.00    +0.133 C 
ENDROOT
BRANCH   1   2
ATOM      2  N   ILE A   1      10.031  13.719  58.221  0.00  0.00    -0.239 NA
ATOM      3  H   ILE A   1       9.740  13.528  59.201  0.00  0.00    +0.142 HD
ENDBRANCH   1   2
BRANCH   1   4
ATOM      4  CB  ILE A   1       9.977  11.198  57.996  0.00  0.00    +0.023 C 
ATOM      5  CG2 ILE A   1       9.946  10.063  56.970  0.00  0.00    +0.002 C 
BRANCH   4   6
ATOM      6  CG1 ILE A   1      11.022  10.927  59.099  0.00  0.00    +0.002 C 
ATOM      7  CD1 ILE A   1      12.473  10.756  58.626  0.00  0.00    +0.000 C 
ENDBRANCH   4   6
ENDBRANCH   1   4
BRANCH   1   8
ATOM      8  C   ILE A   1       9.326  12.723  56.058  0.00  0.00    +0.224 C 
ATOM      9  O   ILE A   1       9.767  12.405  54.965  0.00  0.00    -0.287 OA
ENDBRANCH   1   8
TORSDOF 4
REMARK  Name = ../refined-set-2016/2w7y/2w7y_pocket.pdb
REMARK  225 active torsions:
REMARK  status: ('A' for Active; 'I' for Inactive)
REMARK    1  A    between atoms: _1  and  _3
REMARK    2  A    between atoms: _3  and  _4
REMARK    3  A    between atoms: _3  and  _6
REMARK    4  A    between atoms: _6  and  _7
REMARK    5  A    between atoms: _12  and  _13
REMARK    6  A    between atoms: _15  and  _17
REMARK    7  A    between atoms: _17  and  _18
REMARK    8  A    between atoms: _17  and  _20
REMARK    9  A    between atoms: _20  and  _21
REMARK   10  A    between atoms: _26  and  _28
REMARK   11  A    between atoms: _28  and  _29
REMARK   12  A    between atoms: _31  and  _33
REMARK   13  A    between atoms: _33  and  _34
REMARK   14  A    between atoms: _33  and  _36
REMARK   15  A    between atoms: _36  and  _37
REMARK   16  A    between atoms: _42  and  _43
REMARK   17  A    between atoms: _45  and  _47
REMARK   18  A    between atoms: _47  and  _48
REMARK   19  A    between atoms: _47  and  _50
REMARK   20  A    between atoms: _50  and  _51
REMARK   21  A    between atoms: _56  and  _58
REMARK   22  A    between atoms: _58  and  _59
REMARK   23  A    between atoms: _58  and  _61
REMARK   24  A    between atoms: _61  and  _62
REMARK   25  A    between atoms: _67  and  _69
REMARK   26  A    between atoms: _69  and  _70
REMARK   27  A    between atoms: _69  and  _72
REMARK   28  A    between atoms: _72  and  _73
REMARK   29  A    between atoms: _83  and  _85
REMARK   30  A    between atoms: _85  and  _86
REMARK   31  A    between atoms: _85  and  _88
REMARK   32  A    between atoms: _91  and  _93
REMARK   33  A    between atoms: _93  and  _94
REMARK   34  A    between atoms: _97  and  _99
REMARK   35  A    between atoms: _99  and  _100
REMARK   36  A    between atoms: _99  and  _102
REMARK   37  A    between atoms: _102  and  _103
REMARK   38  A    between atoms: _103  and  _104
REMARK   39  A    between atoms: _106  and  _108
REMARK   40  A    between atoms: _108  and  _109
REMARK   41  A    between atoms: _108  and  _111
REMARK   42  A    between atoms: _111  and  _112
REMARK   43  A    between atoms: _117  and  _118
REMARK   44  A    between atoms: _120  and  _122
REMARK   45  A    between atoms: _122  and  _123
REMARK   46  A    between atoms: _122  and  _125
REMARK   47  A    between atoms: _128  and  _130
REMARK   48  A    between atoms: _130  and  _131
REMARK   49  A    between atoms: _130  and  _133
REMARK   50  A    between atoms: _133  and  _134
REMARK   51  A    between atoms: _139  and  _141
REMARK   52  A    between atoms: _141  and  _142
REMARK   53  A    between atoms: _144  and  _146
REMARK   54  A    between atoms: _146  and  _147
REMARK   55  A    between atoms: _146  and  _149
REMARK   56  A    between atoms: _149  and  _150
REMARK   57  A    between atoms: _153  and  _155
REMARK   58  A    between atoms: _155  and  _156
REMARK   59  A    between atoms: _155  and  _158
REMARK   60  A    between atoms: _158  and  _159
REMARK   61  A    between atoms: _159  and  _160
REMARK   62  A    between atoms: _160  and  _161
REMARK   63  A    between atoms: _161  and  _162
REMARK   64  A    between atoms: _166  and  _168
REMARK   65  A    between atoms: _168  and  _169
REMARK   66  A    between atoms: _168  and  _171
REMARK   67  A    between atoms: _171  and  _172
REMARK   68  A    between atoms: _175  and  _177
REMARK   69  A    between atoms: _177  and  _178
REMARK   70  A    between atoms: _177  and  _180
REMARK   71  A    between atoms: _180  and  _181
REMARK   72  A    between atoms: _184  and  _186
REMARK   73  A    between atoms: _186  and  _187
REMARK   74  A    between atoms: _190  and  _192
REMARK   75  A    between atoms: _192  and  _193
REMARK   76  A    between atoms: _195  and  _197
REMARK   77  A    between atoms: _197  and  _198
REMARK   78  A    between atoms: _197  and  _200
REMARK   79  A    between atoms: _200  and  _201
REMARK   80  A    between atoms: _206  and  _208
REMARK   81  A    between atoms: _208  and  _209
REMARK   82  A    between atoms: _212  and  _214
REMARK   83  A    between atoms: _214  and  _215
REMARK   84  A    between atoms: _214  and  _217
REMARK   85  A    between atoms: _217  and  _218
REMARK   86  A    between atoms: _223  and  _225
REMARK   87  A    between atoms: _225  and  _226
REMARK   88  A    between atoms: _225  and  _228
REMARK   89  A    between atoms: _228  and  _229
REMARK   90  A    between atoms: _229  and  _230
REMARK   91  A    between atoms: _233  and  _235
REMARK   92  A    between atoms: _235  and  _236
REMARK   93  A    between atoms: _235  and  _238
REMARK   94  A    between atoms: _238  and  _239
REMARK   95  A    between atoms: _239  and  _240
REMARK   96  A    between atoms: _245  and  _247
REMARK   97  A    between atoms: _247  and  _248
REMARK   98  A    between atoms: _247  and  _250
REMARK   99  A    between atoms: _250  and  _251
REMARK  100  A    between atoms: _254  and  _256
REMARK  101  A    between atoms: _256  and  _257
REMARK  102  A    between atoms: _256  and  _259
REMARK  103  A    between atoms: _259  and  _260
REMARK  104  A    between atoms: _266  and  _268
REMARK  105  A    between atoms: _268  and  _269
REMARK  106  A    between atoms: _268  and  _271
REMARK  107  A    between atoms: _271  and  _272
REMARK  108  A    between atoms: _275  and  _277
REMARK  109  A    between atoms: _277  and  _278
REMARK  110  A    between atoms: _277  and  _280
REMARK  111  A    between atoms: _280  and  _281
REMARK  112  A    between atoms: _281  and  _282
REMARK  113  A    between atoms: _284  and  _286
REMARK  114  A    between atoms: _286  and  _287
REMARK  115  A    between atoms: _286  and  _289
REMARK  116  A    between atoms: _289  and  _290
REMARK  117  A    between atoms: _300  and  _302
REMARK  118  A    between atoms: _302  and  _303
REMARK  119  A    between atoms: _302  and  _305
REMARK  120  A    between atoms: _305  and  _306
REMARK  121  A    between atoms: _306  and  _307
REMARK  122  A    between atoms: _311  and  _312
REMARK  123  A    between atoms: _317  and  _319
REMARK  124  A    between atoms: _319  and  _320
REMARK  125  A    between atoms: _319  and  _322
REMARK  126  A    between atoms: _322  and  _323
REMARK  127  A    between atoms: _326  and  _328
REMARK  128  A    between atoms: _328  and  _329
REMARK  129  A    between atoms: _328  and  _331
REMARK  130  A    between atoms: _331  and  _332
REMARK  131  A    between atoms: _332  and  _333
REMARK  132  A    between atoms: _333  and  _334
REMARK  133  A    between atoms: _343  and  _345
REMARK  134  A    between atoms: _345  and  _346
REMARK  135  A    between atoms: _345  and  _348
REMARK  136  A    between atoms: _348  and  _349
REMARK  137  A    between atoms: _352  and  _354
REMARK  138  A    between atoms: _354  and  _355
REMARK  139  A    between atoms: _358  and  _360
REMARK  140  A    between atoms: _360  and  _361
REMARK  141  A    between atoms: _360  and  _363
REMARK  142  A    between atoms: _363  and  _364
REMARK  143  A    between atoms: _369  and  _371
REMARK  144  A    between atoms: _371  and  _372
REMARK  145  A    between atoms: _375  and  _377
REMARK  146  A    between atoms: _377  and  _378
REMARK  147  A    between atoms: _377  and  _380
REMARK  148  A    between atoms: _380  and  _381
REMARK  149  A    between atoms: _386  and  _387
REMARK  150  A    between atoms: _389  and  _391
REMARK  151  A    between atoms: _391  and  _392
REMARK  152  A    between atoms: _391  and  _394
REMARK  153  A    between atoms: _394  and  _395
REMARK  154  A    between atoms: _397  and  _399
REMARK  155  A    between atoms: _399  and  _400
REMARK  156  A    between atoms: _399  and  _402
REMARK  157  A    between atoms: _402  and  _403
REMARK  158  A    between atoms: _409  and  _411
REMARK  159  A    between atoms: _411  and  _412
REMARK  160  A    between atoms: _411  and  _414
REMARK  161  A    between atoms: _414  and  _415
REMARK  162  A    between atoms: _421  and  _423
REMARK  163  A    between atoms: _423  and  _424
REMARK  164  A    between atoms: _423  and  _426
REMARK  165  A    between atoms: _426  and  _427
REMARK  166  A    between atoms: _432  and  _434
REMARK  167  A    between atoms: _434  and  _435
REMARK  168  A    between atoms: _437  and  _439
REMARK  169  A    between atoms: _439  and  _440
REMARK  170  A    between atoms: _439  and  _442
REMARK  171  A    between atoms: _445  and  _447
REMARK  172  A    between atoms: _447  and  _448
REMARK  173  A    between atoms: _447  and  _450
REMARK  174  A    between atoms: _450  and  _451
REMARK  175  A    between atoms: _461  and  _463
REMARK  176  A    between atoms: _463  and  _464
REMARK  177  A    between atoms: _467  and  _469
REMARK  178  A    between atoms: _469  and  _470
REMARK  179  A    between atoms: _469  and  _472
REMARK  180  A    between atoms: _472  and  _473
REMARK  181  A    between atoms: _473  and  _474
REMARK  182  A    between atoms: _477  and  _479
REMARK  183  A    between atoms: _479  and  _480
REMARK  184  A    between atoms: _479  and  _482
REMARK  185  A    between atoms: _482  and  _483
REMARK  186  A    between atoms: _485  and  _487
REMARK  187  A    between atoms: _487  and  _488
REMARK  188  A    between atoms: _490  and  _492
REMARK  189  A    between atoms: _492  and  _493
REMARK  190  A    between atoms: _495  and  _497
REMARK  191  A    between atoms: _497  and  _498
REMARK  192  A    between atoms: _497  and  _500
REMARK  193  A    between atoms: _500  and  _501
REMARK  194  A    between atoms: _504  and  _506
REMARK  195  A    between atoms: _506  and  _507
REMARK  196  A    between atoms: _506  and  _509
REMARK  197  A    between atoms: _512  and  _514
REMARK  198  A    between atoms: _514  and  _515
REMARK  199  A    between atoms: _517  and  _519
REMARK  200  A    between atoms: _519  and  _520
REMARK  201  A    between atoms: _523  and  _525
REMARK  202  A    between atoms: _525  and  _526
REMARK  203  A    between atoms: _525  and  _528
REMARK  204  A    between atoms: _528  and  _529
REMARK  205  A    between atoms: _535  and  _536
REMARK  206  A    between atoms: _541  and  _543
REMARK  207  A    between atoms: _543  and  _544
REMARK  208  A    between atoms: _543  and  _546
REMARK  209  A    between atoms: _546  and  _547
REMARK  210  A    between atoms: _550  and  _552
REMARK  211  A    between atoms: _552  and  _553
REMARK  212  A    between atoms: _552  and  _555
REMARK  213  A    between atoms: _555  and  _556
REMARK  214  A    between atoms: _558  and  _560
REMARK  215  A    between atoms: _560  and  _561
REMARK  216  A    between atoms: _560  and  _563
REMARK  217  A    between atoms: _563  and  _564
REMARK  218  A    between atoms: _567  and  _569
REMARK  219  A    between atoms: _569  and  _570
REMARK  220  A    between atoms: _569  and  _572
REMARK  221  A    between atoms: _572  and  _573
REMARK  222  A    between atoms: _578  and  _580
REMARK  223  A    between atoms: _580  and  _581
REMARK  224  A    between atoms: _580  and  _583
REMARK  225  A    between atoms: _583  and  _584
REMARK                            x       y       z     vdW  Elec       q    Type
REMARK                         _______ _______ _______ _____ _____    ______ ____
ROOT
ATOM      1  C   ALA A   3       8.125   9.555  52.767  0.00  0.00    +0.241 C 
ATOM      2  O   ALA A   3       7.515  10.460  53.339  0.00  0.00    -0.273 OA
ATOM      3  N   ASN A   4       7.694   8.294  52.722  0.00  0.00    -0.297 N 
ATOM      4  H   ASN A   4       8.240   7.603  52.168  0.00  0.00    +0.150 HD
ENDROOT
BRANCH   1   5
ATOM      5  CA  ALA A   3       9.436   9.839  52.033  0.00  0.00    +0.149 C 
ATOM      6  CB  ALA A   3      10.603   9.187  52.749  0.00  0.00    +0.031 C 
BRANCH   5   8
ATOM      7  C   GLY A   2       9.955  11.785  50.644  0.00  0.00    +0.243 C 
ATOM      8  N   ALA A   3       9.699  11.266  51.844  0.00  0.00    -0.297 N 
ATOM      9  H   ALA A   3       9.686  11.895  52.672  0.00  0.00    +0.150 HD
ATOM     10  O   GLY A   2       9.920  11.132  49.612  0.00  0.00    -0.273 OA
BRANCH   7  11
ATOM     11  CA  GLY A   2      10.308  13.255  50.597  0.00  0.00    +0.176 C 
BRANCH  11  14
ATOM     12  C   VAL A   1      11.345  13.817  52.678  0.00  0.00    +0.238 C 
ATOM     13  O   VAL A   1      10.236  13.836  53.202  0.00  0.00    -0.274 OA
ATOM     14  N   GLY A   2      11.500  13.537  51.396  0.00  0.00    -0.296 N 
ATOM     15  H   GLY A   2      12.447  13.518  50.966  0.00  0.00    +0.150 HD
BRANCH  12  16
ATOM     16  CA  VAL A   1      12.581  14.164  53.490  0.00  0.00    +0.145 C 
BRANCH  16  17
ATOM     17  CB  VAL A   1      12.862  13.041  54.522  0.00  0.00    +0.025 C 
ATOM     18  CG2 VAL A   1      13.899  13.494  55.554  0.00  0.00    +0.002 C 
ATOM     19  CG1 VAL A   1      13.283  11.752  53.828  0.00  0.00    +0.002 C 
ENDBRANCH  16  17
BRANCH  16  20
ATOM     20  N   VAL A   1      12.216  15.402  54.153  0.00  0.00    -0.238 NA
ATOM     21  H   VAL A   1      11.965  15.375  55.162  0.00  0.00    +0.142 HD
ENDBRANCH  16  20
ENDBRANCH  12  16
ENDBRANCH  11  14
ENDBRANCH   7  11
ENDBRANCH   5   8
ENDBRANCH   1   5
BRANCH   3  22
ATOM     22  CA  ASN A   4       6.491   7.837  53.414  0.00  0.00    +0.158 C 
BRANCH  22  23
ATOM     23  C   ASN A   4       6.805   7.474  54.873  0.00  0.00    +0.244 C 
ATOM     24  N   PRO A   5       6.234   8.234  55.827  0.00  0.00    -0.273 N 
ATOM     25  CA  PRO A   5       6.487   8.014  57.249  0.00  0.00    +0.140 C 
ATOM     26  CB  PRO A   5       5.788   9.205  57.912  0.00  0.00    +0.030 C 
ATOM     27  CG  PRO A   5       4.721   9.596  56.962  0.00  0.00    +0.024 C 
ATOM     28  CD  PRO A   5       5.294   9.349  55.602  0.00  0.00    +0.094 C 
ATOM     29  O   ASN A   4       7.548   6.525  55.134  0.00  0.00    -0.273 OA
BRANCH  25  30
ATOM     30  C   PRO A   5       5.887   6.700  57.752  0.00  0.00    +0.227 C 
ATOM     31  O   PRO A   5       4.836   6.271  57.266  0.00  0.00    -0.286 OA
ENDBRANCH  25  30
ENDBRANCH  22  23
BRANCH  22  32
ATOM     32  CB  ASN A   4       5.858   6.649  52.676  0.00  0.00    +0.114 C 
BRANCH  32  33
ATOM     33  CG  ASN A   4       4.484   6.264  53.231  0.00  0.00    +0.222 C 
ATOM     34  OD1 ASN A   4       3.752   7.097  53.766  0.00  0.00    -0.275 OA
ATOM     35  ND2 ASN A   4       4.127   4.997  53.083  0.00  0.00    -0.329 N 
ATOM     36 HD21 ASN A   4       3.199   4.675  53.424  0.00  0.00    +0.145 HD
ATOM     37 HD22 ASN A   4       4.775   4.324  52.625  0.00  0.00    +0.145 HD
ENDBRANCH  32  33
ENDBRANCH  22  32
ENDBRANCH   3  22
TORSDOF 12
REMARK  Name = ../refined-set-2016/2w7y/2w7y_pocket.pdb
REMARK  225 active torsions:
REMARK  status: ('A' for Active; 'I' for Inactive)
REMARK    1  A    between atoms: _1  and  _3
REMARK    2  A    between atoms: _3  and  _4
REMARK    3  A    between atoms: _3  and  _6
REMARK    4  A    between atoms: _6  and  _7
REMARK    5  A    between atoms: _12  and  _13
REMARK    6  A    between atoms: _15  and  _17
REMARK    7  A    between atoms: _17  and  _18
REMARK    8  A    between atoms: _17  and  _20
REMARK    9  A    between atoms: _20  and  _21
REMARK   10  A    between atoms: _26  and  _28
REMARK   11  A    between atoms: _28  and  _29
REMARK   12  A    between atoms: _31  and  _33
REMARK   13  A    between atoms: _33  and  _34
REMARK   14  A    between atoms: _33  and  _36
REMARK   15  A    between atoms: _36  and  _37
REMARK   16  A    between atoms: _42  and  _43
REMARK   17  A    between atoms: _45  and  _47
REMARK   18  A    between atoms: _47  and  _48
REMARK   19  A    between atoms: _47  and  _50
REMARK   20  A    between atoms: _50  and  _51
REMARK   21  A    between atoms: _56  and  _58
REMARK   22  A    between atoms: _58  and  _59
REMARK   23  A    between atoms: _58  and  _61
REMARK   24  A    between atoms: _61  and  _62
REMARK   25  A    between atoms: _67  and  _69
REMARK   26  A    between atoms: _69  and  _70
REMARK   27  A    between atoms: _69  and  _72
REMARK   28  A    between atoms: _72  and  _73
REMARK   29  A    between atoms: _83  and  _85
REMARK   30  A    between atoms: _85  and  _86
REMARK   31  A    between atoms: _85  and  _88
REMARK   32  A    between atoms: _91  and  _93
REMARK   33  A    between atoms: _93  and  _94
REMARK   34  A    between atoms: _97  and  _99
REMARK   35  A    between atoms: _99  and  _100
REMARK   36  A    between atoms: _99  and  _102
REMARK   37  A    between atoms: _102  and  _103
REMARK   38  A    between atoms: _103  and  _104
REMARK   39  A    between atoms: _106  and  _108
REMARK   40  A    between atoms: _108  and  _109
REMARK   41  A    between atoms: _108  and  _111
REMARK   42  A    between atoms: _111  and  _112
REMARK   43  A    between atoms: _117  and  _118
REMARK   44  A    between atoms: _120  and  _122
REMARK   45  A    between atoms: _122  and  _123
REMARK   46  A    between atoms: _122  and  _125
REMARK   47  A    between atoms: _128  and  _130
REMARK   48  A    between atoms: _130  and  _131
REMARK   49  A    between atoms: _130  and  _133
REMARK   50  A    between atoms: _133  and  _134
REMARK   51  A    between atoms: _139  and  _141
REMARK   52  A    between atoms: _141  and  _142
REMARK   53  A    between atoms: _144  and  _146
REMARK   54  A    between atoms: _146  and  _147
REMARK   55  A    between atoms: _146  and  _149
REMARK   56  A    between atoms: _149  and  _150
REMARK   57  A    between atoms: _153  and  _155
REMARK   58  A    between atoms: _155  and  _156
REMARK   59  A    between atoms: _155  and  _158
REMARK   60  A    between atoms: _158  and  _159
REMARK   61  A    between atoms: _159  and  _160
REMARK   62  A    between atoms: _160  and  _161
REMARK   63  A    between atoms: _161  and  _162
REMARK   64  A    between atoms: _166  and  _168
REMARK   65  A    between atoms: _168  and  _169
REMARK   66  A    between atoms: _168  and  _171
REMARK   67  A    between atoms: _171  and  _172
REMARK   68  A    between atoms: _175  and  _177
REMARK   69  A    between atoms: _177  and  _178
REMARK   70  A    between atoms: _177  and  _180
REMARK   71  A    between atoms: _180  and  _181
REMARK   72  A    between atoms: _184  and  _186
REMARK   73  A    between atoms: _186  and  _187
REMARK   74  A    between atoms: _190  and  _192
REMARK   75  A    between atoms: _192  and  _193
REMARK   76  A    between atoms: _195  and  _197
REMARK   77  A    between atoms: _197  and  _198
REMARK   78  A    between atoms: _197  and  _200
REMARK   79  A    between atoms: _200  and  _201
REMARK   80  A    between atoms: _206  and  _208
REMARK   81  A    between atoms: _208  and  _209
REMARK   82  A    between atoms: _212  and  _214
REMARK   83  A    between atoms: _214  and  _215
REMARK   84  A    between atoms: _214  and  _217
REMARK   85  A    between atoms: _217  and  _218
REMARK   86  A    between atoms: _223  and  _225
REMARK   87  A    between atoms: _225  and  _226
REMARK   88  A    between atoms: _225  and  _228
REMARK   89  A    between atoms: _228  and  _229
REMARK   90  A    between atoms: _229  and  _230
REMARK   91  A    between atoms: _233  and  _235
REMARK   92  A    between atoms: _235  and  _236
REMARK   93  A    between atoms: _235  and  _238
REMARK   94  A    between atoms: _238  and  _239
REMARK   95  A    between atoms: _239  and  _240
REMARK   96  A    between atoms: _245  and  _247
REMARK   97  A    between atoms: _247  and  _248
REMARK   98  A    between atoms: _247  and  _250
REMARK   99  A    between atoms: _250  and  _251
REMARK  100  A    between atoms: _254  and  _256
REMARK  101  A    between atoms: _256  and  _257
REMARK  102  A    between atoms: _256  and  _259
REMARK  103  A    between atoms: _259  and  _260
REMARK  104  A    between atoms: _266  and  _268
REMARK  105  A    between atoms: _268  and  _269
REMARK  106  A    between atoms: _268  and  _271
REMARK  107  A    between atoms: _271  and  _272
REMARK  108  A    between atoms: _275  and  _277
REMARK  109  A    between atoms: _277  and  _278
REMARK  110  A    between atoms: _277  and  _280
REMARK  111  A    between atoms: _280  and  _281
REMARK  112  A    between atoms: _281  and  _282
REMARK  113  A    between atoms: _284  and  _286
REMARK  114  A    between atoms: _286  and  _287
REMARK  115  A    between atoms: _286  and  _289
REMARK  116  A    between atoms: _289  and  _290
REMARK  117  A    between atoms: _300  and  _302
REMARK  118  A    between atoms: _302  and  _303
REMARK  119  A    between atoms: _302  and  _305
REMARK  120  A    between atoms: _305  and  _306
REMARK  121  A    between atoms: _306  and  _307
REMARK  122  A    between atoms: _311  and  _312
REMARK  123  A    between atoms: _317  and  _319
REMARK  124  A    between atoms: _319  and  _320
REMARK  125  A    between atoms: _319  and  _322
REMARK  126  A    between atoms: _322  and  _323
REMARK  127  A    between atoms: _326  and  _328
REMARK  128  A    between atoms: _328  and  _329
REMARK  129  A    between atoms: _328  and  _331
REMARK  130  A    between atoms: _331  and  _332
REMARK  131  A    between atoms: _332  and  _333
REMARK  132  A    between atoms: _333  and  _334
REMARK  133  A    between atoms: _343  and  _345
REMARK  134  A    between atoms: _345  and  _346
REMARK  135  A    between atoms: _345  and  _348
REMARK  136  A    between atoms: _348  and  _349
REMARK  137  A    between atoms: _352  and  _354
REMARK  138  A    between atoms: _354  and  _355
REMARK  139  A    between atoms: _358  and  _360
REMARK  140  A    between atoms: _360  and  _361
REMARK  141  A    between atoms: _360  and  _363
REMARK  142  A    between atoms: _363  and  _364
REMARK  143  A    between atoms: _369  and  _371
REMARK  144  A    between atoms: _371  and  _372
REMARK  145  A    between atoms: _375  and  _377
REMARK  146  A    between atoms: _377  and  _378
REMARK  147  A    between atoms: _377  and  _380
REMARK  148  A    between atoms: _380  and  _381
REMARK  149  A    between atoms: _386  and  _387
REMARK  150  A    between atoms: _389  and  _391
REMARK  151  A    between atoms: _391  and  _392
REMARK  152  A    between atoms: _391  and  _394
REMARK  153  A    between atoms: _394  and  _395
REMARK  154  A    between atoms: _397  and  _399
REMARK  155  A    between atoms: _399  and  _400
REMARK  156  A    between atoms: _399  and  _402
REMARK  157  A    between atoms: _402  and  _403
REMARK  158  A    between atoms: _409  and  _411
REMARK  159  A    between atoms: _411  and  _412
REMARK  160  A    between atoms: _411  and  _414
REMARK  161  A    between atoms: _414  and  _415
REMARK  162  A    between atoms: _421  and  _423
REMARK  163  A    between atoms: _423  and  _424
REMARK  164  A    between atoms: _423  and  _426
REMARK  165  A    between atoms: _426  and  _427
REMARK  166  A    between atoms: _432  and  _434
REMARK  167  A    between atoms: _434  and  _435
REMARK  168  A    between atoms: _437  and  _439
REMARK  169  A    between atoms: _439  and  _440
REMARK  170  A    between atoms: _439  and  _442
REMARK  171  A    between atoms: _445  and  _447
REMARK  172  A    between atoms: _447  and  _448
REMARK  173  A    between atoms: _447  and  _450
REMARK  174  A    between atoms: _450  and  _451
REMARK  175  A    between atoms: _461  and  _463
REMARK  176  A    between atoms: _463  and  _464
REMARK  177  A    between atoms: _467  and  _469
REMARK  178  A    between atoms: _469  and  _470
REMARK  179  A    between atoms: _469  and  _472
REMARK  180  A    between atoms: _472  and  _473
REMARK  181  A    between atoms: _473  and  _474
REMARK  182  A    between atoms: _477  and  _479
REMARK  183  A    between atoms: _479  and  _480
REMARK  184  A    between atoms: _479  and  _482
REMARK  185  A    between atoms: _482  and  _483
REMARK  186  A    between atoms: _485  and  _487
REMARK  187  A    between atoms: _487  and  _488
REMARK  188  A    between atoms: _490  and  _492
REMARK  189  A    between atoms: _492  and  _493
REMARK  190  A    between atoms: _495  and  _497
REMARK  191  A    between atoms: _497  and  _498
REMARK  192  A    between atoms: _497  and  _500
REMARK  193  A    between atoms: _500  and  _501
REMARK  194  A    between atoms: _504  and  _506
REMARK  195  A    between atoms: _506  and  _507
REMARK  196  A    between atoms: _506  and  _509
REMARK  197  A    between atoms: _512  and  _514
REMARK  198  A    between atoms: _514  and  _515
REMARK  199  A    between atoms: _517  and  _519
REMARK  200  A    between atoms: _519  and  _520
REMARK  201  A    between atoms: _523  and  _525
REMARK  202  A    between atoms: _525  and  _526
REMARK  203  A    between atoms: _525  and  _528
REMARK  204  A    between atoms: _528  and  _529
REMARK  205  A    between atoms: _535  and  _536
REMARK  206  A    between atoms: _541  and  _543
REMARK  207  A    between atoms: _543  and  _544
REMARK  208  A    between atoms: _543  and  _546
REMARK  209  A    between atoms: _546  and  _547
REMARK  210  A    between atoms: _550  and  _552
REMARK  211  A    between atoms: _552  and  _553
REMARK  212  A    between atoms: _552  and  _555
REMARK  213  A    between atoms: _555  and  _556
REMARK  214  A    between atoms: _558  and  _560
REMARK  215  A    between atoms: _560  and  _561
REMARK  216  A    between atoms: _560  and  _563
REMARK  217  A    between atoms: _563  and  _564
REMARK  218  A    between atoms: _567  and  _569
REMARK  219  A    between atoms: _569  and  _570
REMARK  220  A    between atoms: _569  and  _572
REMARK  221  A    between atoms: _572  and  _573
REMARK  222  A    between atoms: _578  and  _580
REMARK  223  A    between atoms: _580  and  _581
REMARK  224  A    between atoms: _580  and  _583
REMARK  225  A    between atoms: _583  and  _584
REMARK                            x       y       z     vdW  Elec       q    Type
REMARK                         _______ _______ _______ _____ _____    ______ ____
ROOT
ATOM      1  CA  THR A   1       9.801  -7.110  49.075  0.00  0.00    +0.160 C 
ENDROOT
BRANCH   1   2
ATOM      2  N   THR A   1       8.579  -6.903  49.854  0.00  0.00    -0.237 NA
ATOM      3  H   THR A   1       8.607  -6.317  50.713  0.00  0.00    +0.142 HD
ENDBRANCH   1   2
BRANCH   1   4
ATOM      4  CB  THR A   1      10.903  -6.086  49.405  0.00  0.00    +0.134 C 
ATOM      5  CG2 THR A   1      10.508  -4.690  48.962  0.00  0.00    +0.034 C 
BRANCH   4   6
ATOM      6  OG1 THR A   1      11.153  -6.097  50.815  0.00  0.00    -0.383 OA
ATOM      7  HG1 THR A   1      11.447  -7.001  51.090  0.00  0.00    +0.210 HD
ENDBRANCH   4   6
ENDBRANCH   1   4
BRANCH   1   8
ATOM      8  C   THR A   1      10.354  -8.506  49.325  0.00  0.00    +0.227 C 
ATOM      9  O   THR A   1      10.278  -9.021  50.450  0.00  0.00    -0.287 OA
ENDBRANCH   1   8
TORSDOF 4
REMARK  Name = ../refined-set-2016/2w7y/2w7y_pocket.pdb
REMARK  225 active torsions:
REMARK  status: ('A' for Active; 'I' for Inactive)
REMARK    1  A    between atoms: _1  and  _3
REMARK    2  A    between atoms: _3  and  _4
REMARK    3  A    between atoms: _3  and  _6
REMARK    4  A    between atoms: _6  and  _7
REMARK    5  A    between atoms: _12  and  _13
REMARK    6  A    between atoms: _15  and  _17
REMARK    7  A    between atoms: _17  and  _18
REMARK    8  A    between atoms: _17  and  _20
REMARK    9  A    between atoms: _20  and  _21
REMARK   10  A    between atoms: _26  and  _28
REMARK   11  A    between atoms: _28  and  _29
REMARK   12  A    between atoms: _31  and  _33
REMARK   13  A    between atoms: _33  and  _34
REMARK   14  A    between atoms: _33  and  _36
REMARK   15  A    between atoms: _36  and  _37
REMARK   16  A    between atoms: _42  and  _43
REMARK   17  A    between atoms: _45  and  _47
REMARK   18  A    between atoms: _47  and  _48
REMARK   19  A    between atoms: _47  and  _50
REMARK   20  A    between atoms: _50  and  _51
REMARK   21  A    between atoms: _56  and  _58
REMARK   22  A    between atoms: _58  and  _59
REMARK   23  A    between atoms: _58  and  _61
REMARK   24  A    between atoms: _61  and  _62
REMARK   25  A    between atoms: _67  and  _69
REMARK   26  A    between atoms: _69  and  _70
REMARK   27  A    between atoms: _69  and  _72
REMARK   28  A    between atoms: _72  and  _73
REMARK   29  A    between atoms: _83  and  _85
REMARK   30  A    between atoms: _85  and  _86
REMARK   31  A    between atoms: _85  and  _88
REMARK   32  A    between atoms: _91  and  _93
REMARK   33  A    between atoms: _93  and  _94
REMARK   34  A    between atoms: _97  and  _99
REMARK   35  A    between atoms: _99  and  _100
REMARK   36  A    between atoms: _99  and  _102
REMARK   37  A    between atoms: _102  and  _103
REMARK   38  A    between atoms: _103  and  _104
REMARK   39  A    between atoms: _106  and  _108
REMARK   40  A    between atoms: _108  and  _109
REMARK   41  A    between atoms: _108  and  _111
REMARK   42  A    between atoms: _111  and  _112
REMARK   43  A    between atoms: _117  and  _118
REMARK   44  A    between atoms: _120  and  _122
REMARK   45  A    between atoms: _122  and  _123
REMARK   46  A    between atoms: _122  and  _125
REMARK   47  A    between atoms: _128  and  _130
REMARK   48  A    between atoms: _130  and  _131
REMARK   49  A    between atoms: _130  and  _133
REMARK   50  A    between atoms: _133  and  _134
REMARK   51  A    between atoms: _139  and  _141
REMARK   52  A    between atoms: _141  and  _142
REMARK   53  A    between atoms: _144  and  _146
REMARK   54  A    between atoms: _146  and  _147
REMARK   55  A    between atoms: _146  and  _149
REMARK   56  A    between atoms: _149  and  _150
REMARK   57  A    between atoms: _153  and  _155
REMARK   58  A    between atoms: _155  and  _156
REMARK   59  A    between atoms: _155  and  _158
REMARK   60  A    between atoms: _158  and  _159
REMARK   61  A    between atoms: _159  and  _160
REMARK   62  A    between atoms: _160  and  _161
REMARK   63  A    between atoms: _161  and  _162
REMARK   64  A    between atoms: _166  and  _168
REMARK   65  A    between atoms: _168  and  _169
REMARK   66  A    between atoms: _168  and  _171
REMARK   67  A    between atoms: _171  and  _172
REMARK   68  A    between atoms: _175  and  _177
REMARK   69  A    between atoms: _177  and  _178
REMARK   70  A    between atoms: _177  and  _180
REMARK   71  A    between atoms: _180  and  _181
REMARK   72  A    between atoms: _184  and  _186
REMARK   73  A    between atoms: _186  and  _187
REMARK   74  A    between atoms: _190  and  _192
REMARK   75  A    between atoms: _192  and  _193
REMARK   76  A    between atoms: _195  and  _197
REMARK   77  A    between atoms: _197  and  _198
REMARK   78  A    between atoms: _197  and  _200
REMARK   79  A    between atoms: _200  and  _201
REMARK   80  A    between atoms: _206  and  _208
REMARK   81  A    between atoms: _208  and  _209
REMARK   82  A    between atoms: _212  and  _214
REMARK   83  A    between atoms: _214  and  _215
REMARK   84  A    between atoms: _214  and  _217
REMARK   85  A    between atoms: _217  and  _218
REMARK   86  A    between atoms: _223  and  _225
REMARK   87  A    between atoms: _225  and  _226
REMARK   88  A    between atoms: _225  and  _228
REMARK   89  A    between atoms: _228  and  _229
REMARK   90  A    between atoms: _229  and  _230
REMARK   91  A    between atoms: _233  and  _235
REMARK   92  A    between atoms: _235  and  _236
REMARK   93  A    between atoms: _235  and  _238
REMARK   94  A    between atoms: _238  and  _239
REMARK   95  A    between atoms: _239  and  _240
REMARK   96  A    between atoms: _245  and  _247
REMARK   97  A    between atoms: _247  and  _248
REMARK   98  A    between atoms: _247  and  _250
REMARK   99  A    between atoms: _250  and  _251
REMARK  100  A    between atoms: _254  and  _256
REMARK  101  A    between atoms: _256  and  _257
REMARK  102  A    between atoms: _256  and  _259
REMARK  103  A    between atoms: _259  and  _260
REMARK  104  A    between atoms: _266  and  _268
REMARK  105  A    between atoms: _268  and  _269
REMARK  106  A    between atoms: _268  and  _271
REMARK  107  A    between atoms: _271  and  _272
REMARK  108  A    between atoms: _275  and  _277
REMARK  109  A    between atoms: _277  and  _278
REMARK  110  A    between atoms: _277  and  _280
REMARK  111  A    between atoms: _280  and  _281
REMARK  112  A    between atoms: _281  and  _282
REMARK  113  A    between atoms: _284  and  _286
REMARK  114  A    between atoms: _286  and  _287
REMARK  115  A    between atoms: _286  and  _289
REMARK  116  A    between atoms: _289  and  _290
REMARK  117  A    between atoms: _300  and  _302
REMARK  118  A    between atoms: _302  and  _303
REMARK  119  A    between atoms: _302  and  _305
REMARK  120  A    between atoms: _305  and  _306
REMARK  121  A    between atoms: _306  and  _307
REMARK  122  A    between atoms: _311  and  _312
REMARK  123  A    between atoms: _317  and  _319
REMARK  124  A    between atoms: _319  and  _320
REMARK  125  A    between atoms: _319  and  _322
REMARK  126  A    between atoms: _322  and  _323
REMARK  127  A    between atoms: _326  and  _328
REMARK  128  A    between atoms: _328  and  _329
REMARK  129  A    between atoms: _328  and  _331
REMARK  130  A    between atoms: _331  and  _332
REMARK  131  A    between atoms: _332  and  _333
REMARK  132  A    between atoms: _333  and  _334
REMARK  133  A    between atoms: _343  and  _345
REMARK  134  A    between atoms: _345  and  _346
REMARK  135  A    between atoms: _345  and  _348
REMARK  136  A    between atoms: _348  and  _349
REMARK  137  A    between atoms: _352  and  _354
REMARK  138  A    between atoms: _354  and  _355
REMARK  139  A    between atoms: _358  and  _360
REMARK  140  A    between atoms: _360  and  _361
REMARK  141  A    between atoms: _360  and  _363
REMARK  142  A    between atoms: _363  and  _364
REMARK  143  A    between atoms: _369  and  _371
REMARK  144  A    between atoms: _371  and  _372
REMARK  145  A    between atoms: _375  and  _377
REMARK  146  A    between atoms: _377  and  _378
REMARK  147  A    between atoms: _377  and  _380
REMARK  148  A    between atoms: _380  and  _381
REMARK  149  A    between atoms: _386  and  _387
REMARK  150  A    between atoms: _389  and  _391
REMARK  151  A    between atoms: _391  and  _392
REMARK  152  A    between atoms: _391  and  _394
REMARK  153  A    between atoms: _394  and  _395
REMARK  154  A    between atoms: _397  and  _399
REMARK  155  A    between atoms: _399  and  _400
REMARK  156  A    between atoms: _399  and  _402
REMARK  157  A    between atoms: _402  and  _403
REMARK  158  A    between atoms: _409  and  _411
REMARK  159  A    between atoms: _411  and  _412
REMARK  160  A    between atoms: _411  and  _414
REMARK  161  A    between atoms: _414  and  _415
REMARK  162  A    between atoms: _421  and  _423
REMARK  163  A    between atoms: _423  and  _424
REMARK  164  A    between atoms: _423  and  _426
REMARK  165  A    between atoms: _426  and  _427
REMARK  166  A    between atoms: _432  and  _434
REMARK  167  A    between atoms: _434  and  _435
REMARK  168  A    between atoms: _437  and  _439
REMARK  169  A    between atoms: _439  and  _440
REMARK  170  A    between atoms: _439  and  _442
REMARK  171  A    between atoms: _445  and  _447
REMARK  172  A    between atoms: _447  and  _448
REMARK  173  A    between atoms: _447  and  _450
REMARK  174  A    between atoms: _450  and  _451
REMARK  175  A    between atoms: _461  and  _463
REMARK  176  A    between atoms: _463  and  _464
REMARK  177  A    between atoms: _467  and  _469
REMARK  178  A    between atoms: _469  and  _470
REMARK  179  A    between atoms: _469  and  _472
REMARK  180  A    between atoms: _472  and  _473
REMARK  181  A    between atoms: _473  and  _474
REMARK  182  A    between atoms: _477  and  _479
REMARK  183  A    between atoms: _479  and  _480
REMARK  184  A    between atoms: _479  and  _482
REMARK  185  A    between atoms: _482  and  _483
REMARK  186  A    between atoms: _485  and  _487
REMARK  187  A    between atoms: _487  and  _488
REMARK  188  A    between atoms: _490  and  _492
REMARK  189  A    between atoms: _492  and  _493
REMARK  190  A    between atoms: _495  and  _497
REMARK  191  A    between atoms: _497  and  _498
REMARK  192  A    between atoms: _497  and  _500
REMARK  193  A    between atoms: _500  and  _501
REMARK  194  A    between atoms: _504  and  _506
REMARK  195  A    between atoms: _506  and  _507
REMARK  196  A    between atoms: _506  and  _509
REMARK  197  A    between atoms: _512  and  _514
REMARK  198  A    between atoms: _514  and  _515
REMARK  199  A    between atoms: _517  and  _519
REMARK  200  A    between atoms: _519  and  _520
REMARK  201  A    between atoms: _523  and  _525
REMARK  202  A    between atoms: _525  and  _526
REMARK  203  A    between atoms: _525  and  _528
REMARK  204  A    between atoms: _528  and  _529
REMARK  205  A    between atoms: _535  and  _536
REMARK  206  A    between atoms: _541  and  _543
REMARK  207  A    between atoms: _543  and  _544
REMARK  208  A    between atoms: _543  and  _546
REMARK  209  A    between atoms: _546  and  _547
REMARK  210  A    between atoms: _550  and  _552
REMARK  211  A    between atoms: _552  and  _553
REMARK  212  A    between atoms: _552  and  _555
REMARK  213  A    between atoms: _555  and  _556
REMARK  214  A    between atoms: _558  and  _560
REMARK  215  A    between atoms: _560  and  _561
REMARK  216  A    between atoms: _560  and  _563
REMARK  217  A    between atoms: _563  and  _564
REMARK  218  A    between atoms: _567  and  _569
REMARK  219  A    between atoms: _569  and  _570
REMARK  220  A    between atoms: _569  and  _572
REMARK  221  A    between atoms: _572  and  _573
REMARK  222  A    between atoms: _578  and  _580
REMARK  223  A    between atoms: _580  and  _581
REMARK  224  A    between atoms: _580  and  _583
REMARK  225  A    between atoms: _583  and  _584
REMARK                            x       y       z     vdW  Elec       q    Type
REMARK                         _______ _______ _______ _____ _____    ______ ____
ROOT
ATOM      1  C   SER A   1      13.753  -9.142  52.126  0.00  0.00    +0.241 C 
ATOM      2  O   SER A   1      14.397  -9.745  52.979  0.00  0.00    -0.274 OA
ATOM      3  N   ASP A   2      12.557  -8.605  52.366  0.00  0.00    -0.298 N 
ATOM      4  H   ASP A   2      12.054  -8.136  51.586  0.00  0.00    +0.150 HD
ENDROOT
BRANCH   1   5
ATOM      5  CA  SER A   1      14.314  -8.976  50.712  0.00  0.00    +0.174 C 
BRANCH   5   6
ATOM      6  N   SER A   1      13.329  -9.194  49.656  0.00  0.00    -0.236 NA
ATOM      7  H   SER A   1      13.155  -8.425  48.977  0.00  0.00    +0.142 HD
ENDBRANCH   5   6
BRANCH   5   8
ATOM      8  CB  SER A   1      14.936  -7.584  50.559  0.00  0.00    +0.163 C 
BRANCH   8   9
ATOM      9  OG  SER A   1      16.095  -7.460  51.362  0.00  0.00    -0.380 OA
ATOM     10  H   SER A   1      15.853  -7.599  52.312  0.00  0.00    +0.211 HD
ENDBRANCH   8   9
ENDBRANCH   5   8
ENDBRANCH   1   5
BRANCH   3  11
ATOM     11  CA  ASP A   2      11.922  -8.650  53.687  0.00  0.00    +0.148 C 
BRANCH  11  12
ATOM     12  C   ASP A   2      11.495 -10.056  54.079  0.00  0.00    +0.227 C 
ATOM     13  O   ASP A   2      11.724 -10.500  55.208  0.00  0.00    -0.286 OA
ENDBRANCH  11  12
BRANCH  11  14
ATOM     14  CB  ASP A   2      10.707  -7.714  53.734  0.00  0.00    +0.142 C 
BRANCH  14  15
ATOM     15  CG  ASP A   2      11.082  -6.271  54.044  0.00  0.00    +0.367 C 
ATOM     16  OD2 ASP A   2      12.286  -5.969  54.194  0.00  0.00    -0.246 OA
ATOM     17  OD1 ASP A   2      10.160  -5.435  54.146  0.00  0.00    -0.246 OA
ENDBRANCH  14  15
ENDBRANCH  11  14
ENDBRANCH   3  11
TORSDOF 8
REMARK  Name = ../refined-set-2016/2w7y/2w7y_pocket.pdb
REMARK  225 active torsions:
REMARK  status: ('A' for Active; 'I' for Inactive)
REMARK    1  A    between atoms: _1  and  _3
REMARK    2  A    between atoms: _3  and  _4
REMARK    3  A    between atoms: _3  and  _6
REMARK    4  A    between atoms: _6  and  _7
REMARK    5  A    between atoms: _12  and  _13
REMARK    6  A    between atoms: _15  and  _17
REMARK    7  A    between atoms: _17  and  _18
REMARK    8  A    between atoms: _17  and  _20
REMARK    9  A    between atoms: _20  and  _21
REMARK   10  A    between atoms: _26  and  _28
REMARK   11  A    between atoms: _28  and  _29
REMARK   12  A    between atoms: _31  and  _33
REMARK   13  A    between atoms: _33  and  _34
REMARK   14  A    between atoms: _33  and  _36
REMARK   15  A    between atoms: _36  and  _37
REMARK   16  A    between atoms: _42  and  _43
REMARK   17  A    between atoms: _45  and  _47
REMARK   18  A    between atoms: _47  and  _48
REMARK   19  A    between atoms: _47  and  _50
REMARK   20  A    between atoms: _50  and  _51
REMARK   21  A    between atoms: _56  and  _58
REMARK   22  A    between atoms: _58  and  _59
REMARK   23  A    between atoms: _58  and  _61
REMARK   24  A    between atoms: _61  and  _62
REMARK   25  A    between atoms: _67  and  _69
REMARK   26  A    between atoms: _69  and  _70
REMARK   27  A    between atoms: _69  and  _72
REMARK   28  A    between atoms: _72  and  _73
REMARK   29  A    between atoms: _83  and  _85
REMARK   30  A    between atoms: _85  and  _86
REMARK   31  A    between atoms: _85  and  _88
REMARK   32  A    between atoms: _91  and  _93
REMARK   33  A    between atoms: _93  and  _94
REMARK   34  A    between atoms: _97  and  _99
REMARK   35  A    between atoms: _99  and  _100
REMARK   36  A    between atoms: _99  and  _102
REMARK   37  A    between atoms: _102  and  _103
REMARK   38  A    between atoms: _103  and  _104
REMARK   39  A    between atoms: _106  and  _108
REMARK   40  A    between atoms: _108  and  _109
REMARK   41  A    between atoms: _108  and  _111
REMARK   42  A    between atoms: _111  and  _112
REMARK   43  A    between atoms: _117  and  _118
REMARK   44  A    between atoms: _120  and  _122
REMARK   45  A    between atoms: _122  and  _123
REMARK   46  A    between atoms: _122  and  _125
REMARK   47  A    between atoms: _128  and  _130
REMARK   48  A    between atoms: _130  and  _131
REMARK   49  A    between atoms: _130  and  _133
REMARK   50  A    between atoms: _133  and  _134
REMARK   51  A    between atoms: _139  and  _141
REMARK   52  A    between atoms: _141  and  _142
REMARK   53  A    between atoms: _144  and  _146
REMARK   54  A    between atoms: _146  and  _147
REMARK   55  A    between atoms: _146  and  _149
REMARK   56  A    between atoms: _149  and  _150
REMARK   57  A    between atoms: _153  and  _155
REMARK   58  A    between atoms: _155  and  _156
REMARK   59  A    between atoms: _155  and  _158
REMARK   60  A    between atoms: _158  and  _159
REMARK   61  A    between atoms: _159  and  _160
REMARK   62  A    between atoms: _160  and  _161
REMARK   63  A    between atoms: _161  and  _162
REMARK   64  A    between atoms: _166  and  _168
REMARK   65  A    between atoms: _168  and  _169
REMARK   66  A    between atoms: _168  and  _171
REMARK   67  A    between atoms: _171  and  _172
REMARK   68  A    between atoms: _175  and  _177
REMARK   69  A    between atoms: _177  and  _178
REMARK   70  A    between atoms: _177  and  _180
REMARK   71  A    between atoms: _180  and  _181
REMARK   72  A    between atoms: _184  and  _186
REMARK   73  A    between atoms: _186  and  _187
REMARK   74  A    between atoms: _190  and  _192
REMARK   75  A    between atoms: _192  and  _193
REMARK   76  A    between atoms: _195  and  _197
REMARK   77  A    between atoms: _197  and  _198
REMARK   78  A    between atoms: _197  and  _200
REMARK   79  A    between atoms: _200  and  _201
REMARK   80  A    between atoms: _206  and  _208
REMARK   81  A    between atoms: _208  and  _209
REMARK   82  A    between atoms: _212  and  _214
REMARK   83  A    between atoms: _214  and  _215
REMARK   84  A    between atoms: _214  and  _217
REMARK   85  A    between atoms: _217  and  _218
REMARK   86  A    between atoms: _223  and  _225
REMARK   87  A    between atoms: _225  and  _226
REMARK   88  A    between atoms: _225  and  _228
REMARK   89  A    between atoms: _228  and  _229
REMARK   90  A    between atoms: _229  and  _230
REMARK   91  A    between atoms: _233  and  _235
REMARK   92  A    between atoms: _235  and  _236
REMARK   93  A    between atoms: _235  and  _238
REMARK   94  A    between atoms: _238  and  _239
REMARK   95  A    between atoms: _239  and  _240
REMARK   96  A    between atoms: _245  and  _247
REMARK   97  A    between atoms: _247  and  _248
REMARK   98  A    between atoms: _247  and  _250
REMARK   99  A    between atoms: _250  and  _251
REMARK  100  A    between atoms: _254  and  _256
REMARK  101  A    between atoms: _256  and  _257
REMARK  102  A    between atoms: _256  and  _259
REMARK  103  A    between atoms: _259  and  _260
REMARK  104  A    between atoms: _266  and  _268
REMARK  105  A    between atoms: _268  and  _269
REMARK  106  A    between atoms: _268  and  _271
REMARK  107  A    between atoms: _271  and  _272
REMARK  108  A    between atoms: _275  and  _277
REMARK  109  A    between atoms: _277  and  _278
REMARK  110  A    between atoms: _277  and  _280
REMARK  111  A    between atoms: _280  and  _281
REMARK  112  A    between atoms: _281  and  _282
REMARK  113  A    between atoms: _284  and  _286
REMARK  114  A    between atoms: _286  and  _287
REMARK  115  A    between atoms: _286  and  _289
REMARK  116  A    between atoms: _289  and  _290
REMARK  117  A    between atoms: _300  and  _302
REMARK  118  A    between atoms: _302  and  _303
REMARK  119  A    between atoms: _302  and  _305
REMARK  120  A    between atoms: _305  and  _306
REMARK  121  A    between atoms: _306  and  _307
REMARK  122  A    between atoms: _311  and  _312
REMARK  123  A    between atoms: _317  and  _319
REMARK  124  A    between atoms: _319  and  _320
REMARK  125  A    between atoms: _319  and  _322
REMARK  126  A    between atoms: _322  and  _323
REMARK  127  A    between atoms: _326  and  _328
REMARK  128  A    between atoms: _328  and  _329
REMARK  129  A    between atoms: _328  and  _331
REMARK  130  A    between atoms: _331  and  _332
REMARK  131  A    between atoms: _332  and  _333
REMARK  132  A    between atoms: _333  and  _334
REMARK  133  A    between atoms: _343  and  _345
REMARK  134  A    between atoms: _345  and  _346
REMARK  135  A    between atoms: _345  and  _348
REMARK  136  A    between atoms: _348  and  _349
REMARK  137  A    between atoms: _352  and  _354
REMARK  138  A    between atoms: _354  and  _355
REMARK  139  A    between atoms: _358  and  _360
REMARK  140  A    between atoms: _360  and  _361
REMARK  141  A    between atoms: _360  and  _363
REMARK  142  A    between atoms: _363  and  _364
REMARK  143  A    between atoms: _369  and  _371
REMARK  144  A    between atoms: _371  and  _372
REMARK  145  A    between atoms: _375  and  _377
REMARK  146  A    between atoms: _377  and  _378
REMARK  147  A    between atoms: _377  and  _380
REMARK  148  A    between atoms: _380  and  _381
REMARK  149  A    between atoms: _386  and  _387
REMARK  150  A    between atoms: _389  and  _391
REMARK  151  A    between atoms: _391  and  _392
REMARK  152  A    between atoms: _391  and  _394
REMARK  153  A    between atoms: _394  and  _395
REMARK  154  A    between atoms: _397  and  _399
REMARK  155  A    between atoms: _399  and  _400
REMARK  156  A    between atoms: _399  and  _402
REMARK  157  A    between atoms: _402  and  _403
REMARK  158  A    between atoms: _409  and  _411
REMARK  159  A    between atoms: _411  and  _412
REMARK  160  A    between atoms: _411  and  _414
REMARK  161  A    between atoms: _414  and  _415
REMARK  162  A    between atoms: _421  and  _423
REMARK  163  A    between atoms: _423  and  _424
REMARK  164  A    between atoms: _423  and  _426
REMARK  165  A    between atoms: _426  and  _427
REMARK  166  A    between atoms: _432  and  _434
REMARK  167  A    between atoms: _434  and  _435
REMARK  168  A    between atoms: _437  and  _439
REMARK  169  A    between atoms: _439  and  _440
REMARK  170  A    between atoms: _439  and  _442
REMARK  171  A    between atoms: _445  and  _447
REMARK  172  A    between atoms: _447  and  _448
REMARK  173  A    between atoms: _447  and  _450
REMARK  174  A    between atoms: _450  and  _451
REMARK  175  A    between atoms: _461  and  _463
REMARK  176  A    between atoms: _463  and  _464
REMARK  177  A    between atoms: _467  and  _469
REMARK  178  A    between atoms: _469  and  _470
REMARK  179  A    between atoms: _469  and  _472
REMARK  180  A    between atoms: _472  and  _473
REMARK  181  A    between atoms: _473  and  _474
REMARK  182  A    between atoms: _477  and  _479
REMARK  183  A    between atoms: _479  and  _480
REMARK  184  A    between atoms: _479  and  _482
REMARK  185  A    between atoms: _482  and  _483
REMARK  186  A    between atoms: _485  and  _487
REMARK  187  A    between atoms: _487  and  _488
REMARK  188  A    between atoms: _490  and  _492
REMARK  189  A    between atoms: _492  and  _493
REMARK  190  A    between atoms: _495  and  _497
REMARK  191  A    between atoms: _497  and  _498
REMARK  192  A    between atoms: _497  and  _500
REMARK  193  A    between atoms: _500  and  _501
REMARK  194  A    between atoms: _504  and  _506
REMARK  195  A    between atoms: _506  and  _507
REMARK  196  A    between atoms: _506  and  _509
REMARK  197  A    between atoms: _512  and  _514
REMARK  198  A    between atoms: _514  and  _515
REMARK  199  A    between atoms: _517  and  _519
REMARK  200  A    between atoms: _519  and  _520
REMARK  201  A    between atoms: _523  and  _525
REMARK  202  A    between atoms: _525  and  _526
REMARK  203  A    between atoms: _525  and  _528
REMARK  204  A    between atoms: _528  and  _529
REMARK  205  A    between atoms: _535  and  _536
REMARK  206  A    between atoms: _541  and  _543
REMARK  207  A    between atoms: _543  and  _544
REMARK  208  A    between atoms: _543  and  _546
REMARK  209  A    between atoms: _546  and  _547
REMARK  210  A    between atoms: _550  and  _552
REMARK  211  A    between atoms: _552  and  _553
REMARK  212  A    between atoms: _552  and  _555
REMARK  213  A    between atoms: _555  and  _556
REMARK  214  A    between atoms: _558  and  _560
REMARK  215  A    between atoms: _560  and  _561
REMARK  216  A    between atoms: _560  and  _563
REMARK  217  A    between atoms: _563  and  _564
REMARK  218  A    between atoms: _567  and  _569
REMARK  219  A    between atoms: _569  and  _570
REMARK  220  A    between atoms: _569  and  _572
REMARK  221  A    between atoms: _572  and  _573
REMARK  222  A    between atoms: _578  and  _580
REMARK  223  A    between atoms: _580  and  _581
REMARK  224  A    between atoms: _580  and  _583
REMARK  225  A    between atoms: _583  and  _584
REMARK                            x       y       z     vdW  Elec       q    Type
REMARK                         _______ _______ _______ _____ _____    ______ ____
ROOT
ATOM      1  CB  HIS A   1      17.338  -9.750  48.105  0.00  0.00    +0.072 C 
ENDROOT
BRANCH   1   2
ATOM      2  CG  HIS A   1      17.416  -8.357  47.563  0.00  0.00    +0.082 A 
ATOM      3  CD2 HIS A   1      18.440  -7.471  47.533  0.00  0.00    +0.115 A 
ATOM      4  NE2 HIS A   1      17.962  -6.318  46.960  0.00  0.00    -0.221 NA
ATOM      5  CE1 HIS A   1      16.688  -6.486  46.656  0.00  0.00    +0.199 A 
ATOM      6  ND1 HIS A   1      16.331  -7.704  47.022  0.00  0.00    -0.227 NA
ENDBRANCH   1   2
BRANCH   1   7
ATOM      7  CA  HIS A   1      17.386 -10.862  47.045  0.00  0.00    +0.139 C 
BRANCH   7   8
ATOM      8  N   HIS A   1      17.432 -12.155  47.743  0.00  0.00    -0.239 NA
ATOM      9  H   HIS A   1      17.286 -12.156  48.773  0.00  0.00    +0.142 HD
ENDBRANCH   7   8
BRANCH   7  10
ATOM     10  C   HIS A   1      18.566 -10.687  46.066  0.00  0.00    +0.224 C 
ATOM     11  O   HIS A   1      18.356 -10.531  44.858  0.00  0.00    -0.287 OA
ENDBRANCH   7  10
ENDBRANCH   1   7
TORSDOF 4
REMARK  Name = ../refined-set-2016/2w7y/2w7y_pocket.pdb
REMARK  225 active torsions:
REMARK  status: ('A' for Active; 'I' for Inactive)
REMARK    1  A    between atoms: _1  and  _3
REMARK    2  A    between atoms: _3  and  _4
REMARK    3  A    between atoms: _3  and  _6
REMARK    4  A    between atoms: _6  and  _7
REMARK    5  A    between atoms: _12  and  _13
REMARK    6  A    between atoms: _15  and  _17
REMARK    7  A    between atoms: _17  and  _18
REMARK    8  A    between atoms: _17  and  _20
REMARK    9  A    between atoms: _20  and  _21
REMARK   10  A    between atoms: _26  and  _28
REMARK   11  A    between atoms: _28  and  _29
REMARK   12  A    between atoms: _31  and  _33
REMARK   13  A    between atoms: _33  and  _34
REMARK   14  A    between atoms: _33  and  _36
REMARK   15  A    between atoms: _36  and  _37
REMARK   16  A    between atoms: _42  and  _43
REMARK   17  A    between atoms: _45  and  _47
REMARK   18  A    between atoms: _47  and  _48
REMARK   19  A    between atoms: _47  and  _50
REMARK   20  A    between atoms: _50  and  _51
REMARK   21  A    between atoms: _56  and  _58
REMARK   22  A    between atoms: _58  and  _59
REMARK   23  A    between atoms: _58  and  _61
REMARK   24  A    between atoms: _61  and  _62
REMARK   25  A    between atoms: _67  and  _69
REMARK   26  A    between atoms: _69  and  _70
REMARK   27  A    between atoms: _69  and  _72
REMARK   28  A    between atoms: _72  and  _73
REMARK   29  A    between atoms: _83  and  _85
REMARK   30  A    between atoms: _85  and  _86
REMARK   31  A    between atoms: _85  and  _88
REMARK   32  A    between atoms: _91  and  _93
REMARK   33  A    between atoms: _93  and  _94
REMARK   34  A    between atoms: _97  and  _99
REMARK   35  A    between atoms: _99  and  _100
REMARK   36  A    between atoms: _99  and  _102
REMARK   37  A    between atoms: _102  and  _103
REMARK   38  A    between atoms: _103  and  _104
REMARK   39  A    between atoms: _106  and  _108
REMARK   40  A    between atoms: _108  and  _109
REMARK   41  A    between atoms: _108  and  _111
REMARK   42  A    between atoms: _111  and  _112
REMARK   43  A    between atoms: _117  and  _118
REMARK   44  A    between atoms: _120  and  _122
REMARK   45  A    between atoms: _122  and  _123
REMARK   46  A    between atoms: _122  and  _125
REMARK   47  A    between atoms: _128  and  _130
REMARK   48  A    between atoms: _130  and  _131
REMARK   49  A    between atoms: _130  and  _133
REMARK   50  A    between atoms: _133  and  _134
REMARK   51  A    between atoms: _139  and  _141
REMARK   52  A    between atoms: _141  and  _142
REMARK   53  A    between atoms: _144  and  _146
REMARK   54  A    between atoms: _146  and  _147
REMARK   55  A    between atoms: _146  and  _149
REMARK   56  A    between atoms: _149  and  _150
REMARK   57  A    between atoms: _153  and  _155
REMARK   58  A    between atoms: _155  and  _156
REMARK   59  A    between atoms: _155  and  _158
REMARK   60  A    between atoms: _158  and  _159
REMARK   61  A    between atoms: _159  and  _160
REMARK   62  A    between atoms: _160  and  _161
REMARK   63  A    between atoms: _161  and  _162
REMARK   64  A    between atoms: _166  and  _168
REMARK   65  A    between atoms: _168  and  _169
REMARK   66  A    between atoms: _168  and  _171
REMARK   67  A    between atoms: _171  and  _172
REMARK   68  A    between atoms: _175  and  _177
REMARK   69  A    between atoms: _177  and  _178
REMARK   70  A    between atoms: _177  and  _180
REMARK   71  A    between atoms: _180  and  _181
REMARK   72  A    between atoms: _184  and  _186
REMARK   73  A    between atoms: _186  and  _187
REMARK   74  A    between atoms: _190  and  _192
REMARK   75  A    between atoms: _192  and  _193
REMARK   76  A    between atoms: _195  and  _197
REMARK   77  A    between atoms: _197  and  _198
REMARK   78  A    between atoms: _197  and  _200
REMARK   79  A    between atoms: _200  and  _201
REMARK   80  A    between atoms: _206  and  _208
REMARK   81  A    between atoms: _208  and  _209
REMARK   82  A    between atoms: _212  and  _214
REMARK   83  A    between atoms: _214  and  _215
REMARK   84  A    between atoms: _214  and  _217
REMARK   85  A    between atoms: _217  and  _218
REMARK   86  A    between atoms: _223  and  _225
REMARK   87  A    between atoms: _225  and  _226
REMARK   88  A    between atoms: _225  and  _228
REMARK   89  A    between atoms: _228  and  _229
REMARK   90  A    between atoms: _229  and  _230
REMARK   91  A    between atoms: _233  and  _235
REMARK   92  A    between atoms: _235  and  _236
REMARK   93  A    between atoms: _235  and  _238
REMARK   94  A    between atoms: _238  and  _239
REMARK   95  A    between atoms: _239  and  _240
REMARK   96  A    between atoms: _245  and  _247
REMARK   97  A    between atoms: _247  and  _248
REMARK   98  A    between atoms: _247  and  _250
REMARK   99  A    between atoms: _250  and  _251
REMARK  100  A    between atoms: _254  and  _256
REMARK  101  A    between atoms: _256  and  _257
REMARK  102  A    between atoms: _256  and  _259
REMARK  103  A    between atoms: _259  and  _260
REMARK  104  A    between atoms: _266  and  _268
REMARK  105  A    between atoms: _268  and  _269
REMARK  106  A    between atoms: _268  and  _271
REMARK  107  A    between atoms: _271  and  _272
REMARK  108  A    between atoms: _275  and  _277
REMARK  109  A    between atoms: _277  and  _278
REMARK  110  A    between atoms: _277  and  _280
REMARK  111  A    between atoms: _280  and  _281
REMARK  112  A    between atoms: _281  and  _282
REMARK  113  A    between atoms: _284  and  _286
REMARK  114  A    between atoms: _286  and  _287
REMARK  115  A    between atoms: _286  and  _289
REMARK  116  A    between atoms: _289  and  _290
REMARK  117  A    between atoms: _300  and  _302
REMARK  118  A    between atoms: _302  and  _303
REMARK  119  A    between atoms: _302  and  _305
REMARK  120  A    between atoms: _305  and  _306
REMARK  121  A    between atoms: _306  and  _307
REMARK  122  A    between atoms: _311  and  _312
REMARK  123  A    between atoms: _317  and  _319
REMARK  124  A    between atoms: _319  and  _320
REMARK  125  A    between atoms: _319  and  _322
REMARK  126  A    between atoms: _322  and  _323
REMARK  127  A    between atoms: _326  and  _328
REMARK  128  A    between atoms: _328  and  _329
REMARK  129  A    between atoms: _328  and  _331
REMARK  130  A    between atoms: _331  and  _332
REMARK  131  A    between atoms: _332  and  _333
REMARK  132  A    between atoms: _333  and  _334
REMARK  133  A    between atoms: _343  and  _345
REMARK  134  A    between atoms: _345  and  _346
REMARK  135  A    between atoms: _345  and  _348
REMARK  136  A    between atoms: _348  and  _349
REMARK  137  A    between atoms: _352  and  _354
REMARK  138  A    between atoms: _354  and  _355
REMARK  139  A    between atoms: _358  and  _360
REMARK  140  A    between atoms: _360  and  _361
REMARK  141  A    between atoms: _360  and  _363
REMARK  142  A    between atoms: _363  and  _364
REMARK  143  A    between atoms: _369  and  _371
REMARK  144  A    between atoms: _371  and  _372
REMARK  145  A    between atoms: _375  and  _377
REMARK  146  A    between atoms: _377  and  _378
REMARK  147  A    between atoms: _377  and  _380
REMARK  148  A    between atoms: _380  and  _381
REMARK  149  A    between atoms: _386  and  _387
REMARK  150  A    between atoms: _389  and  _391
REMARK  151  A    between atoms: _391  and  _392
REMARK  152  A    between atoms: _391  and  _394
REMARK  153  A    between atoms: _394  and  _395
REMARK  154  A    between atoms: _397  and  _399
REMARK  155  A    between atoms: _399  and  _400
REMARK  156  A    between atoms: _399  and  _402
REMARK  157  A    between atoms: _402  and  _403
REMARK  158  A    between atoms: _409  and  _411
REMARK  159  A    between atoms: _411  and  _412
REMARK  160  A    between atoms: _411  and  _414
REMARK  161  A    between atoms: _414  and  _415
REMARK  162  A    between atoms: _421  and  _423
REMARK  163  A    between atoms: _423  and  _424
REMARK  164  A    between atoms: _423  and  _426
REMARK  165  A    between atoms: _426  and  _427
REMARK  166  A    between atoms: _432  and  _434
REMARK  167  A    between atoms: _434  and  _435
REMARK  168  A    between atoms: _437  and  _439
REMARK  169  A    between atoms: _439  and  _440
REMARK  170  A    between atoms: _439  and  _442
REMARK  171  A    between atoms: _445  and  _447
REMARK  172  A    between atoms: _447  and  _448
REMARK  173  A    between atoms: _447  and  _450
REMARK  174  A    between atoms: _450  and  _451
REMARK  175  A    between atoms: _461  and  _463
REMARK  176  A    between atoms: _463  and  _464
REMARK  177  A    between atoms: _467  and  _469
REMARK  178  A    between atoms: _469  and  _470
REMARK  179  A    between atoms: _469  and  _472
REMARK  180  A    between atoms: _472  and  _473
REMARK  181  A    between atoms: _473  and  _474
REMARK  182  A    between atoms: _477  and  _479
REMARK  183  A    between atoms: _479  and  _480
REMARK  184  A    between atoms: _479  and  _482
REMARK  185  A    between atoms: _482  and  _483
REMARK  186  A    between atoms: _485  and  _487
REMARK  187  A    between atoms: _487  and  _488
REMARK  188  A    between atoms: _490  and  _492
REMARK  189  A    between atoms: _492  and  _493
REMARK  190  A    between atoms: _495  and  _497
REMARK  191  A    between atoms: _497  and  _498
REMARK  192  A    between atoms: _497  and  _500
REMARK  193  A    between atoms: _500  and  _501
REMARK  194  A    between atoms: _504  and  _506
REMARK  195  A    between atoms: _506  and  _507
REMARK  196  A    between atoms: _506  and  _509
REMARK  197  A    between atoms: _512  and  _514
REMARK  198  A    between atoms: _514  and  _515
REMARK  199  A    between atoms: _517  and  _519
REMARK  200  A    between atoms: _519  and  _520
REMARK  201  A    between atoms: _523  and  _525
REMARK  202  A    between atoms: _525  and  _526
REMARK  203  A    between atoms: _525  and  _528
REMARK  204  A    between atoms: _528  and  _529
REMARK  205  A    between atoms: _535  and  _536
REMARK  206  A    between atoms: _541  and  _543
REMARK  207  A    between atoms: _543  and  _544
REMARK  208  A    between atoms: _543  and  _546
REMARK  209  A    between atoms: _546  and  _547
REMARK  210  A    between atoms: _550  and  _552
REMARK  211  A    between atoms: _552  and  _553
REMARK  212  A    between atoms: _552  and  _555
REMARK  213  A    between atoms: _555  and  _556
REMARK  214  A    between atoms: _558  and  _560
REMARK  215  A    between atoms: _560  and  _561
REMARK  216  A    between atoms: _560  and  _563
REMARK  217  A    between atoms: _563  and  _564
REMARK  218  A    between atoms: _567  and  _569
REMARK  219  A    between atoms: _569  and  _570
REMARK  220  A    between atoms: _569  and  _572
REMARK  221  A    between atoms: _572  and  _573
REMARK  222  A    between atoms: _578  and  _580
REMARK  223  A    between atoms: _580  and  _581
REMARK  224  A    between atoms: _580  and  _583
REMARK  225  A    between atoms: _583  and  _584
REMARK                            x       y       z     vdW  Elec       q    Type
REMARK                         _______ _______ _______ _____ _____    ______ ____
ROOT
ATOM      1  CA  ILE A   1      19.178  -9.668  41.207  0.00  0.00    +0.133 C 
ENDROOT
BRANCH   1   2
ATOM      2  N   ILE A   1      18.657 -10.850  41.919  0.00  0.00    -0.239 NA
ATOM      3  H   ILE A   1      18.653 -10.842  42.959  0.00  0.00    +0.142 HD
ENDBRANCH   1   2
BRANCH   1   4
ATOM      4  CB  ILE A   1      19.634  -8.544  42.196  0.00  0.00    +0.023 C 
ATOM      5  CG2 ILE A   1      20.595  -7.541  41.527  0.00  0.00    +0.002 C 
BRANCH   4   6
ATOM      6  CG1 ILE A   1      18.423  -7.796  42.755  0.00  0.00    +0.002 C 
ATOM      7  CD1 ILE A   1      18.789  -6.796  43.844  0.00  0.00    +0.000 C 
ENDBRANCH   4   6
ENDBRANCH   1   4
BRANCH   1   8
ATOM      8  C   ILE A   1      20.314 -10.023  40.244  0.00  0.00    +0.224 C 
ATOM      9  O   ILE A   1      20.302  -9.590  39.089  0.00  0.00    -0.287 OA
ENDBRANCH   1   8
TORSDOF 4
REMARK  Name = ../refined-set-2016/2w7y/2w7y_pocket.pdb
REMARK  225 active torsions:
REMARK  status: ('A' for Active; 'I' for Inactive)
REMARK    1  A    between atoms: _1  and  _3
REMARK    2  A    between atoms: _3  and  _4
REMARK    3  A    between atoms: _3  and  _6
REMARK    4  A    between atoms: _6  and  _7
REMARK    5  A    between atoms: _12  and  _13
REMARK    6  A    between atoms: _15  and  _17
REMARK    7  A    between atoms: _17  and  _18
REMARK    8  A    between atoms: _17  and  _20
REMARK    9  A    between atoms: _20  and  _21
REMARK   10  A    between atoms: _26  and  _28
REMARK   11  A    between atoms: _28  and  _29
REMARK   12  A    between atoms: _31  and  _33
REMARK   13  A    between atoms: _33  and  _34
REMARK   14  A    between atoms: _33  and  _36
REMARK   15  A    between atoms: _36  and  _37
REMARK   16  A    between atoms: _42  and  _43
REMARK   17  A    between atoms: _45  and  _47
REMARK   18  A    between atoms: _47  and  _48
REMARK   19  A    between atoms: _47  and  _50
REMARK   20  A    between atoms: _50  and  _51
REMARK   21  A    between atoms: _56  and  _58
REMARK   22  A    between atoms: _58  and  _59
REMARK   23  A    between atoms: _58  and  _61
REMARK   24  A    between atoms: _61  and  _62
REMARK   25  A    between atoms: _67  and  _69
REMARK   26  A    between atoms: _69  and  _70
REMARK   27  A    between atoms: _69  and  _72
REMARK   28  A    between atoms: _72  and  _73
REMARK   29  A    between atoms: _83  and  _85
REMARK   30  A    between atoms: _85  and  _86
REMARK   31  A    between atoms: _85  and  _88
REMARK   32  A    between atoms: _91  and  _93
REMARK   33  A    between atoms: _93  and  _94
REMARK   34  A    between atoms: _97  and  _99
REMARK   35  A    between atoms: _99  and  _100
REMARK   36  A    between atoms: _99  and  _102
REMARK   37  A    between atoms: _102  and  _103
REMARK   38  A    between atoms: _103  and  _104
REMARK   39  A    between atoms: _106  and  _108
REMARK   40  A    between atoms: _108  and  _109
REMARK   41  A    between atoms: _108  and  _111
REMARK   42  A    between atoms: _111  and  _112
REMARK   43  A    between atoms: _117  and  _118
REMARK   44  A    between atoms: _120  and  _122
REMARK   45  A    between atoms: _122  and  _123
REMARK   46  A    between atoms: _122  and  _125
REMARK   47  A    between atoms: _128  and  _130
REMARK   48  A    between atoms: _130  and  _131
REMARK   49  A    between atoms: _130  and  _133
REMARK   50  A    between atoms: _133  and  _134
REMARK   51  A    between atoms: _139  and  _141
REMARK   52  A    between atoms: _141  and  _142
REMARK   53  A    between atoms: _144  and  _146
REMARK   54  A    between atoms: _146  and  _147
REMARK   55  A    between atoms: _146  and  _149
REMARK   56  A    between atoms: _149  and  _150
REMARK   57  A    between atoms: _153  and  _155
REMARK   58  A    between atoms: _155  and  _156
REMARK   59  A    between atoms: _155  and  _158
REMARK   60  A    between atoms: _158  and  _159
REMARK   61  A    between atoms: _159  and  _160
REMARK   62  A    between atoms: _160  and  _161
REMARK   63  A    between atoms: _161  and  _162
REMARK   64  A    between atoms: _166  and  _168
REMARK   65  A    between atoms: _168  and  _169
REMARK   66  A    between atoms: _168  and  _171
REMARK   67  A    between atoms: _171  and  _172
REMARK   68  A    between atoms: _175  and  _177
REMARK   69  A    between atoms: _177  and  _178
REMARK   70  A    between atoms: _177  and  _180
REMARK   71  A    between atoms: _180  and  _181
REMARK   72  A    between atoms: _184  and  _186
REMARK   73  A    between atoms: _186  and  _187
REMARK   74  A    between atoms: _190  and  _192
REMARK   75  A    between atoms: _192  and  _193
REMARK   76  A    between atoms: _195  and  _197
REMARK   77  A    between atoms: _197  and  _198
REMARK   78  A    between atoms: _197  and  _200
REMARK   79  A    between atoms: _200  and  _201
REMARK   80  A    between atoms: _206  and  _208
REMARK   81  A    between atoms: _208  and  _209
REMARK   82  A    between atoms: _212  and  _214
REMARK   83  A    between atoms: _214  and  _215
REMARK   84  A    between atoms: _214  and  _217
REMARK   85  A    between atoms: _217  and  _218
REMARK   86  A    between atoms: _223  and  _225
REMARK   87  A    between atoms: _225  and  _226
REMARK   88  A    between atoms: _225  and  _228
REMARK   89  A    between atoms: _228  and  _229
REMARK   90  A    between atoms: _229  and  _230
REMARK   91  A    between atoms: _233  and  _235
REMARK   92  A    between atoms: _235  and  _236
REMARK   93  A    between atoms: _235  and  _238
REMARK   94  A    between atoms: _238  and  _239
REMARK   95  A    between atoms: _239  and  _240
REMARK   96  A    between atoms: _245  and  _247
REMARK   97  A    between atoms: _247  and  _248
REMARK   98  A    between atoms: _247  and  _250
REMARK   99  A    between atoms: _250  and  _251
REMARK  100  A    between atoms: _254  and  _256
REMARK  101  A    between atoms: _256  and  _257
REMARK  102  A    between atoms: _256  and  _259
REMARK  103  A    between atoms: _259  and  _260
REMARK  104  A    between atoms: _266  and  _268
REMARK  105  A    between atoms: _268  and  _269
REMARK  106  A    between atoms: _268  and  _271
REMARK  107  A    between atoms: _271  and  _272
REMARK  108  A    between atoms: _275  and  _277
REMARK  109  A    between atoms: _277  and  _278
REMARK  110  A    between atoms: _277  and  _280
REMARK  111  A    between atoms: _280  and  _281
REMARK  112  A    between atoms: _281  and  _282
REMARK  113  A    between atoms: _284  and  _286
REMARK  114  A    between atoms: _286  and  _287
REMARK  115  A    between atoms: _286  and  _289
REMARK  116  A    between atoms: _289  and  _290
REMARK  117  A    between atoms: _300  and  _302
REMARK  118  A    between atoms: _302  and  _303
REMARK  119  A    between atoms: _302  and  _305
REMARK  120  A    between atoms: _305  and  _306
REMARK  121  A    between atoms: _306  and  _307
REMARK  122  A    between atoms: _311  and  _312
REMARK  123  A    between atoms: _317  and  _319
REMARK  124  A    between atoms: _319  and  _320
REMARK  125  A    between atoms: _319  and  _322
REMARK  126  A    between atoms: _322  and  _323
REMARK  127  A    between atoms: _326  and  _328
REMARK  128  A    between atoms: _328  and  _329
REMARK  129  A    between atoms: _328  and  _331
REMARK  130  A    between atoms: _331  and  _332
REMARK  131  A    between atoms: _332  and  _333
REMARK  132  A    between atoms: _333  and  _334
REMARK  133  A    between atoms: _343  and  _345
REMARK  134  A    between atoms: _345  and  _346
REMARK  135  A    between atoms: _345  and  _348
REMARK  136  A    between atoms: _348  and  _349
REMARK  137  A    between atoms: _352  and  _354
REMARK  138  A    between atoms: _354  and  _355
REMARK  139  A    between atoms: _358  and  _360
REMARK  140  A    between atoms: _360  and  _361
REMARK  141  A    between atoms: _360  and  _363
REMARK  142  A    between atoms: _363  and  _364
REMARK  143  A    between atoms: _369  and  _371
REMARK  144  A    between atoms: _371  and  _372
REMARK  145  A    between atoms: _375  and  _377
REMARK  146  A    between atoms: _377  and  _378
REMARK  147  A    between atoms: _377  and  _380
REMARK  148  A    between atoms: _380  and  _381
REMARK  149  A    between atoms: _386  and  _387
REMARK  150  A    between atoms: _389  and  _391
REMARK  151  A    between atoms: _391  and  _392
REMARK  152  A    between atoms: _391  and  _394
REMARK  153  A    between atoms: _394  and  _395
REMARK  154  A    between atoms: _397  and  _399
REMARK  155  A    between atoms: _399  and  _400
REMARK  156  A    between atoms: _399  and  _402
REMARK  157  A    between atoms: _402  and  _403
REMARK  158  A    between atoms: _409  and  _411
REMARK  159  A    between atoms: _411  and  _412
REMARK  160  A    between atoms: _411  and  _414
REMARK  161  A    between atoms: _414  and  _415
REMARK  162  A    between atoms: _421  and  _423
REMARK  163  A    between atoms: _423  and  _424
REMARK  164  A    between atoms: _423  and  _426
REMARK  165  A    between atoms: _426  and  _427
REMARK  166  A    between atoms: _432  and  _434
REMARK  167  A    between atoms: _434  and  _435
REMARK  168  A    between atoms: _437  and  _439
REMARK  169  A    between atoms: _439  and  _440
REMARK  170  A    between atoms: _439  and  _442
REMARK  171  A    between atoms: _445  and  _447
REMARK  172  A    between atoms: _447  and  _448
REMARK  173  A    between atoms: _447  and  _450
REMARK  174  A    between atoms: _450  and  _451
REMARK  175  A    between atoms: _461  and  _463
REMARK  176  A    between atoms: _463  and  _464
REMARK  177  A    between atoms: _467  and  _469
REMARK  178  A    between atoms: _469  and  _470
REMARK  179  A    between atoms: _469  and  _472
REMARK  180  A    between atoms: _472  and  _473
REMARK  181  A    between atoms: _473  and  _474
REMARK  182  A    between atoms: _477  and  _479
REMARK  183  A    between atoms: _479  and  _480
REMARK  184  A    between atoms: _479  and  _482
REMARK  185  A    between atoms: _482  and  _483
REMARK  186  A    between atoms: _485  and  _487
REMARK  187  A    between atoms: _487  and  _488
REMARK  188  A    between atoms: _490  and  _492
REMARK  189  A    between atoms: _492  and  _493
REMARK  190  A    between atoms: _495  and  _497
REMARK  191  A    between atoms: _497  and  _498
REMARK  192  A    between atoms: _497  and  _500
REMARK  193  A    between atoms: _500  and  _501
REMARK  194  A    between atoms: _504  and  _506
REMARK  195  A    between atoms: _506  and  _507
REMARK  196  A    between atoms: _506  and  _509
REMARK  197  A    between atoms: _512  and  _514
REMARK  198  A    between atoms: _514  and  _515
REMARK  199  A    between atoms: _517  and  _519
REMARK  200  A    between atoms: _519  and  _520
REMARK  201  A    between atoms: _523  and  _525
REMARK  202  A    between atoms: _525  and  _526
REMARK  203  A    between atoms: _525  and  _528
REMARK  204  A    between atoms: _528  and  _529
REMARK  205  A    between atoms: _535  and  _536
REMARK  206  A    between atoms: _541  and  _543
REMARK  207  A    between atoms: _543  and  _544
REMARK  208  A    between atoms: _543  and  _546
REMARK  209  A    between atoms: _546  and  _547
REMARK  210  A    between atoms: _550  and  _552
REMARK  211  A    between atoms: _552  and  _553
REMARK  212  A    between atoms: _552  and  _555
REMARK  213  A    between atoms: _555  and  _556
REMARK  214  A    between atoms: _558  and  _560
REMARK  215  A    between atoms: _560  and  _561
REMARK  216  A    between atoms: _560  and  _563
REMARK  217  A    between atoms: _563  and  _564
REMARK  218  A    between atoms: _567  and  _569
REMARK  219  A    between atoms: _569  and  _570
REMARK  220  A    between atoms: _569  and  _572
REMARK  221  A    between atoms: _572  and  _573
REMARK  222  A    between atoms: _578  and  _580
REMARK  223  A    between atoms: _580  and  _581
REMARK  224  A    between atoms: _580  and  _583
REMARK  225  A    between atoms: _583  and  _584
REMARK                            x       y       z     vdW  Elec       q    Type
REMARK                         _______ _______ _______ _____ _____    ______ ____
ROOT
ATOM      1  O   HOH     1      25.855   4.036  52.464  0.00  0.00    +0.000 OA
ENDROOT
TORSDOF 0
REMARK  Name = ../refined-set-2016/2w7y/2w7y_pocket.pdb
REMARK  225 active torsions:
REMARK  status: ('A' for Active; 'I' for Inactive)
REMARK    1  A    between atoms: _1  and  _3
REMARK    2  A    between atoms: _3  and  _4
REMARK    3  A    between atoms: _3  and  _6
REMARK    4  A    between atoms: _6  and  _7
REMARK    5  A    between atoms: _12  and  _13
REMARK    6  A    between atoms: _15  and  _17
REMARK    7  A    between atoms: _17  and  _18
REMARK    8  A    between atoms: _17  and  _20
REMARK    9  A    between atoms: _20  and  _21
REMARK   10  A    between atoms: _26  and  _28
REMARK   11  A    between atoms: _28  and  _29
REMARK   12  A    between atoms: _31  and  _33
REMARK   13  A    between atoms: _33  and  _34
REMARK   14  A    between atoms: _33  and  _36
REMARK   15  A    between atoms: _36  and  _37
REMARK   16  A    between atoms: _42  and  _43
REMARK   17  A    between atoms: _45  and  _47
REMARK   18  A    between atoms: _47  and  _48
REMARK   19  A    between atoms: _47  and  _50
REMARK   20  A    between atoms: _50  and  _51
REMARK   21  A    between atoms: _56  and  _58
REMARK   22  A    between atoms: _58  and  _59
REMARK   23  A    between atoms: _58  and  _61
REMARK   24  A    between atoms: _61  and  _62
REMARK   25  A    between atoms: _67  and  _69
REMARK   26  A    between atoms: _69  and  _70
REMARK   27  A    between atoms: _69  and  _72
REMARK   28  A    between atoms: _72  and  _73
REMARK   29  A    between atoms: _83  and  _85
REMARK   30  A    between atoms: _85  and  _86
REMARK   31  A    between atoms: _85  and  _88
REMARK   32  A    between atoms: _91  and  _93
REMARK   33  A    between atoms: _93  and  _94
REMARK   34  A    between atoms: _97  and  _99
REMARK   35  A    between atoms: _99  and  _100
REMARK   36  A    between atoms: _99  and  _102
REMARK   37  A    between atoms: _102  and  _103
REMARK   38  A    between atoms: _103  and  _104
REMARK   39  A    between atoms: _106  and  _108
REMARK   40  A    between atoms: _108  and  _109
REMARK   41  A    between atoms: _108  and  _111
REMARK   42  A    between atoms: _111  and  _112
REMARK   43  A    between atoms: _117  and  _118
REMARK   44  A    between atoms: _120  and  _122
REMARK   45  A    between atoms: _122  and  _123
REMARK   46  A    between atoms: _122  and  _125
REMARK   47  A    between atoms: _128  and  _130
REMARK   48  A    between atoms: _130  and  _131
REMARK   49  A    between atoms: _130  and  _133
REMARK   50  A    between atoms: _133  and  _134
REMARK   51  A    between atoms: _139  and  _141
REMARK   52  A    between atoms: _141  and  _142
REMARK   53  A    between atoms: _144  and  _146
REMARK   54  A    between atoms: _146  and  _147
REMARK   55  A    between atoms: _146  and  _149
REMARK   56  A    between atoms: _149  and  _150
REMARK   57  A    between atoms: _153  and  _155
REMARK   58  A    between atoms: _155  and  _156
REMARK   59  A    between atoms: _155  and  _158
REMARK   60  A    between atoms: _158  and  _159
REMARK   61  A    between atoms: _159  and  _160
REMARK   62  A    between atoms: _160  and  _161
REMARK   63  A    between atoms: _161  and  _162
REMARK   64  A    between atoms: _166  and  _168
REMARK   65  A    between atoms: _168  and  _169
REMARK   66  A    between atoms: _168  and  _171
REMARK   67  A    between atoms: _171  and  _172
REMARK   68  A    between atoms: _175  and  _177
REMARK   69  A    between atoms: _177  and  _178
REMARK   70  A    between atoms: _177  and  _180
REMARK   71  A    between atoms: _180  and  _181
REMARK   72  A    between atoms: _184  and  _186
REMARK   73  A    between atoms: _186  and  _187
REMARK   74  A    between atoms: _190  and  _192
REMARK   75  A    between atoms: _192  and  _193
REMARK   76  A    between atoms: _195  and  _197
REMARK   77  A    between atoms: _197  and  _198
REMARK   78  A    between atoms: _197  and  _200
REMARK   79  A    between atoms: _200  and  _201
REMARK   80  A    between atoms: _206  and  _208
REMARK   81  A    between atoms: _208  and  _209
REMARK   82  A    between atoms: _212  and  _214
REMARK   83  A    between atoms: _214  and  _215
REMARK   84  A    between atoms: _214  and  _217
REMARK   85  A    between atoms: _217  and  _218
REMARK   86  A    between atoms: _223  and  _225
REMARK   87  A    between atoms: _225  and  _226
REMARK   88  A    between atoms: _225  and  _228
REMARK   89  A    between atoms: _228  and  _229
REMARK   90  A    between atoms: _229  and  _230
REMARK   91  A    between atoms: _233  and  _235
REMARK   92  A    between atoms: _235  and  _236
REMARK   93  A    between atoms: _235  and  _238
REMARK   94  A    between atoms: _238  and  _239
REMARK   95  A    between atoms: _239  and  _240
REMARK   96  A    between atoms: _245  and  _247
REMARK   97  A    between atoms: _247  and  _248
REMARK   98  A    between atoms: _247  and  _250
REMARK   99  A    between atoms: _250  and  _251
REMARK  100  A    between atoms: _254  and  _256
REMARK  101  A    between atoms: _256  and  _257
REMARK  102  A    between atoms: _256  and  _259
REMARK  103  A    between atoms: _259  and  _260
REMARK  104  A    between atoms: _266  and  _268
REMARK  105  A    between atoms: _268  and  _269
REMARK  106  A    between atoms: _268  and  _271
REMARK  107  A    between atoms: _271  and  _272
REMARK  108  A    between atoms: _275  and  _277
REMARK  109  A    between atoms: _277  and  _278
REMARK  110  A    between atoms: _277  and  _280
REMARK  111  A    between atoms: _280  and  _281
REMARK  112  A    between atoms: _281  and  _282
REMARK  113  A    between atoms: _284  and  _286
REMARK  114  A    between atoms: _286  and  _287
REMARK  115  A    between atoms: _286  and  _289
REMARK  116  A    between atoms: _289  and  _290
REMARK  117  A    between atoms: _300  and  _302
REMARK  118  A    between atoms: _302  and  _303
REMARK  119  A    between atoms: _302  and  _305
REMARK  120  A    between atoms: _305  and  _306
REMARK  121  A    between atoms: _306  and  _307
REMARK  122  A    between atoms: _311  and  _312
REMARK  123  A    between atoms: _317  and  _319
REMARK  124  A    between atoms: _319  and  _320
REMARK  125  A    between atoms: _319  and  _322
REMARK  126  A    between atoms: _322  and  _323
REMARK  127  A    between atoms: _326  and  _328
REMARK  128  A    between atoms: _328  and  _329
REMARK  129  A    between atoms: _328  and  _331
REMARK  130  A    between atoms: _331  and  _332
REMARK  131  A    between atoms: _332  and  _333
REMARK  132  A    between atoms: _333  and  _334
REMARK  133  A    between atoms: _343  and  _345
REMARK  134  A    between atoms: _345  and  _346
REMARK  135  A    between atoms: _345  and  _348
REMARK  136  A    between atoms: _348  and  _349
REMARK  137  A    between atoms: _352  and  _354
REMARK  138  A    between atoms: _354  and  _355
REMARK  139  A    between atoms: _358  and  _360
REMARK  140  A    between atoms: _360  and  _361
REMARK  141  A    between atoms: _360  and  _363
REMARK  142  A    between atoms: _363  and  _364
REMARK  143  A    between atoms: _369  and  _371
REMARK  144  A    between atoms: _371  and  _372
REMARK  145  A    between atoms: _375  and  _377
REMARK  146  A    between atoms: _377  and  _378
REMARK  147  A    between atoms: _377  and  _380
REMARK  148  A    between atoms: _380  and  _381
REMARK  149  A    between atoms: _386  and  _387
REMARK  150  A    between atoms: _389  and  _391
REMARK  151  A    between atoms: _391  and  _392
REMARK  152  A    between atoms: _391  and  _394
REMARK  153  A    between atoms: _394  and  _395
REMARK  154  A    between atoms: _397  and  _399
REMARK  155  A    between atoms: _399  and  _400
REMARK  156  A    between atoms: _399  and  _402
REMARK  157  A    between atoms: _402  and  _403
REMARK  158  A    between atoms: _409  and  _411
REMARK  159  A    between atoms: _411  and  _412
REMARK  160  A    between atoms: _411  and  _414
REMARK  161  A    between atoms: _414  and  _415
REMARK  162  A    between atoms: _421  and  _423
REMARK  163  A    between atoms: _423  and  _424
REMARK  164  A    between atoms: _423  and  _426
REMARK  165  A    between atoms: _426  and  _427
REMARK  166  A    between atoms: _432  and  _434
REMARK  167  A    between atoms: _434  and  _435
REMARK  168  A    between atoms: _437  and  _439
REMARK  169  A    between atoms: _439  and  _440
REMARK  170  A    between atoms: _439  and  _442
REMARK  171  A    between atoms: _445  and  _447
REMARK  172  A    between atoms: _447  and  _448
REMARK  173  A    between atoms: _447  and  _450
REMARK  174  A    between atoms: _450  and  _451
REMARK  175  A    between atoms: _461  and  _463
REMARK  176  A    between atoms: _463  and  _464
REMARK  177  A    between atoms: _467  and  _469
REMARK  178  A    between atoms: _469  and  _470
REMARK  179  A    between atoms: _469  and  _472
REMARK  180  A    between atoms: _472  and  _473
REMARK  181  A    between atoms: _473  and  _474
REMARK  182  A    between atoms: _477  and  _479
REMARK  183  A    between atoms: _479  and  _480
REMARK  184  A    between atoms: _479  and  _482
REMARK  185  A    between atoms: _482  and  _483
REMARK  186  A    between atoms: _485  and  _487
REMARK  187  A    between atoms: _487  and  _488
REMARK  188  A    between atoms: _490  and  _492
REMARK  189  A    between atoms: _492  and  _493
REMARK  190  A    between atoms: _495  and  _497
REMARK  191  A    between atoms: _497  and  _498
REMARK  192  A    between atoms: _497  and  _500
REMARK  193  A    between atoms: _500  and  _501
REMARK  194  A    between atoms: _504  and  _506
REMARK  195  A    between atoms: _506  and  _507
REMARK  196  A    between atoms: _506  and  _509
REMARK  197  A    between atoms: _512  and  _514
REMARK  198  A    between atoms: _514  and  _515
REMARK  199  A    between atoms: _517  and  _519
REMARK  200  A    between atoms: _519  and  _520
REMARK  201  A    between atoms: _523  and  _525
REMARK  202  A    between atoms: _525  and  _526
REMARK  203  A    between atoms: _525  and  _528
REMARK  204  A    between atoms: _528  and  _529
REMARK  205  A    between atoms: _535  and  _536
REMARK  206  A    between atoms: _541  and  _543
REMARK  207  A    between atoms: _543  and  _544
REMARK  208  A    between atoms: _543  and  _546
REMARK  209  A    between atoms: _546  and  _547
REMARK  210  A    between atoms: _550  and  _552
REMARK  211  A    between atoms: _552  and  _553
REMARK  212  A    between atoms: _552  and  _555
REMARK  213  A    between atoms: _555  and  _556
REMARK  214  A    between atoms: _558  and  _560
REMARK  215  A    between atoms: _560  and  _561
REMARK  216  A    between atoms: _560  and  _563
REMARK  217  A    between atoms: _563  and  _564
REMARK  218  A    between atoms: _567  and  _569
REMARK  219  A    between atoms: _569  and  _570
REMARK  220  A    between atoms: _569  and  _572
REMARK  221  A    between atoms: _572  and  _573
REMARK  222  A    between atoms: _578  and  _580
REMARK  223  A    between atoms: _580  and  _581
REMARK  224  A    between atoms: _580  and  _583
REMARK  225  A    between atoms: _583  and  _584
REMARK                            x       y       z     vdW  Elec       q    Type
REMARK                         _______ _______ _______ _____ _____    ______ ____
ROOT
ATOM      1  O   HOH     1      16.595   5.871  56.748  0.00  0.00    +0.000 OA
ENDROOT
TORSDOF 0
REMARK  Name = ../refined-set-2016/2w7y/2w7y_pocket.pdb
REMARK  225 active torsions:
REMARK  status: ('A' for Active; 'I' for Inactive)
REMARK    1  A    between atoms: _1  and  _3
REMARK    2  A    between atoms: _3  and  _4
REMARK    3  A    between atoms: _3  and  _6
REMARK    4  A    between atoms: _6  and  _7
REMARK    5  A    between atoms: _12  and  _13
REMARK    6  A    between atoms: _15  and  _17
REMARK    7  A    between atoms: _17  and  _18
REMARK    8  A    between atoms: _17  and  _20
REMARK    9  A    between atoms: _20  and  _21
REMARK   10  A    between atoms: _26  and  _28
REMARK   11  A    between atoms: _28  and  _29
REMARK   12  A    between atoms: _31  and  _33
REMARK   13  A    between atoms: _33  and  _34
REMARK   14  A    between atoms: _33  and  _36
REMARK   15  A    between atoms: _36  and  _37
REMARK   16  A    between atoms: _42  and  _43
REMARK   17  A    between atoms: _45  and  _47
REMARK   18  A    between atoms: _47  and  _48
REMARK   19  A    between atoms: _47  and  _50
REMARK   20  A    between atoms: _50  and  _51
REMARK   21  A    between atoms: _56  and  _58
REMARK   22  A    between atoms: _58  and  _59
REMARK   23  A    between atoms: _58  and  _61
REMARK   24  A    between atoms: _61  and  _62
REMARK   25  A    between atoms: _67  and  _69
REMARK   26  A    between atoms: _69  and  _70
REMARK   27  A    between atoms: _69  and  _72
REMARK   28  A    between atoms: _72  and  _73
REMARK   29  A    between atoms: _83  and  _85
REMARK   30  A    between atoms: _85  and  _86
REMARK   31  A    between atoms: _85  and  _88
REMARK   32  A    between atoms: _91  and  _93
REMARK   33  A    between atoms: _93  and  _94
REMARK   34  A    between atoms: _97  and  _99
REMARK   35  A    between atoms: _99  and  _100
REMARK   36  A    between atoms: _99  and  _102
REMARK   37  A    between atoms: _102  and  _103
REMARK   38  A    between atoms: _103  and  _104
REMARK   39  A    between atoms: _106  and  _108
REMARK   40  A    between atoms: _108  and  _109
REMARK   41  A    between atoms: _108  and  _111
REMARK   42  A    between atoms: _111  and  _112
REMARK   43  A    between atoms: _117  and  _118
REMARK   44  A    between atoms: _120  and  _122
REMARK   45  A    between atoms: _122  and  _123
REMARK   46  A    between atoms: _122  and  _125
REMARK   47  A    between atoms: _128  and  _130
REMARK   48  A    between atoms: _130  and  _131
REMARK   49  A    between atoms: _130  and  _133
REMARK   50  A    between atoms: _133  and  _134
REMARK   51  A    between atoms: _139  and  _141
REMARK   52  A    between atoms: _141  and  _142
REMARK   53  A    between atoms: _144  and  _146
REMARK   54  A    between atoms: _146  and  _147
REMARK   55  A    between atoms: _146  and  _149
REMARK   56  A    between atoms: _149  and  _150
REMARK   57  A    between atoms: _153  and  _155
REMARK   58  A    between atoms: _155  and  _156
REMARK   59  A    between atoms: _155  and  _158
REMARK   60  A    between atoms: _158  and  _159
REMARK   61  A    between atoms: _159  and  _160
REMARK   62  A    between atoms: _160  and  _161
REMARK   63  A    between atoms: _161  and  _162
REMARK   64  A    between atoms: _166  and  _168
REMARK   65  A    between atoms: _168  and  _169
REMARK   66  A    between atoms: _168  and  _171
REMARK   67  A    between atoms: _171  and  _172
REMARK   68  A    between atoms: _175  and  _177
REMARK   69  A    between atoms: _177  and  _178
REMARK   70  A    between atoms: _177  and  _180
REMARK   71  A    between atoms: _180  and  _181
REMARK   72  A    between atoms: _184  and  _186
REMARK   73  A    between atoms: _186  and  _187
REMARK   74  A    between atoms: _190  and  _192
REMARK   75  A    between atoms: _192  and  _193
REMARK   76  A    between atoms: _195  and  _197
REMARK   77  A    between atoms: _197  and  _198
REMARK   78  A    between atoms: _197  and  _200
REMARK   79  A    between atoms: _200  and  _201
REMARK   80  A    between atoms: _206  and  _208
REMARK   81  A    between atoms: _208  and  _209
REMARK   82  A    between atoms: _212  and  _214
REMARK   83  A    between atoms: _214  and  _215
REMARK   84  A    between atoms: _214  and  _217
REMARK   85  A    between atoms: _217  and  _218
REMARK   86  A    between atoms: _223  and  _225
REMARK   87  A    between atoms: _225  and  _226
REMARK   88  A    between atoms: _225  and  _228
REMARK   89  A    between atoms: _228  and  _229
REMARK   90  A    between atoms: _229  and  _230
REMARK   91  A    between atoms: _233  and  _235
REMARK   92  A    between atoms: _235  and  _236
REMARK   93  A    between atoms: _235  and  _238
REMARK   94  A    between atoms: _238  and  _239
REMARK   95  A    between atoms: _239  and  _240
REMARK   96  A    between atoms: _245  and  _247
REMARK   97  A    between atoms: _247  and  _248
REMARK   98  A    between atoms: _247  and  _250
REMARK   99  A    between atoms: _250  and  _251
REMARK  100  A    between atoms: _254  and  _256
REMARK  101  A    between atoms: _256  and  _257
REMARK  102  A    between atoms: _256  and  _259
REMARK  103  A    between atoms: _259  and  _260
REMARK  104  A    between atoms: _266  and  _268
REMARK  105  A    between atoms: _268  and  _269
REMARK  106  A    between atoms: _268  and  _271
REMARK  107  A    between atoms: _271  and  _272
REMARK  108  A    between atoms: _275  and  _277
REMARK  109  A    between atoms: _277  and  _278
REMARK  110  A    between atoms: _277  and  _280
REMARK  111  A    between atoms: _280  and  _281
REMARK  112  A    between atoms: _281  and  _282
REMARK  113  A    between atoms: _284  and  _286
REMARK  114  A    between atoms: _286  and  _287
REMARK  115  A    between atoms: _286  and  _289
REMARK  116  A    between atoms: _289  and  _290
REMARK  117  A    between atoms: _300  and  _302
REMARK  118  A    between atoms: _302  and  _303
REMARK  119  A    between atoms: _302  and  _305
REMARK  120  A    between atoms: _305  and  _306
REMARK  121  A    between atoms: _306  and  _307
REMARK  122  A    between atoms: _311  and  _312
REMARK  123  A    between atoms: _317  and  _319
REMARK  124  A    between atoms: _319  and  _320
REMARK  125  A    between atoms: _319  and  _322
REMARK  126  A    between atoms: _322  and  _323
REMARK  127  A    between atoms: _326  and  _328
REMARK  128  A    between atoms: _328  and  _329
REMARK  129  A    between atoms: _328  and  _331
REMARK  130  A    between atoms: _331  and  _332
REMARK  131  A    between atoms: _332  and  _333
REMARK  132  A    between atoms: _333  and  _334
REMARK  133  A    between atoms: _343  and  _345
REMARK  134  A    between atoms: _345  and  _346
REMARK  135  A    between atoms: _345  and  _348
REMARK  136  A    between atoms: _348  and  _349
REMARK  137  A    between atoms: _352  and  _354
REMARK  138  A    between atoms: _354  and  _355
REMARK  139  A    between atoms: _358  and  _360
REMARK  140  A    between atoms: _360  and  _361
REMARK  141  A    between atoms: _360  and  _363
REMARK  142  A    between atoms: _363  and  _364
REMARK  143  A    between atoms: _369  and  _371
REMARK  144  A    between atoms: _371  and  _372
REMARK  145  A    between atoms: _375  and  _377
REMARK  146  A    between atoms: _377  and  _378
REMARK  147  A    between atoms: _377  and  _380
REMARK  148  A    between atoms: _380  and  _381
REMARK  149  A    between atoms: _386  and  _387
REMARK  150  A    between atoms: _389  and  _391
REMARK  151  A    between atoms: _391  and  _392
REMARK  152  A    between atoms: _391  and  _394
REMARK  153  A    between atoms: _394  and  _395
REMARK  154  A    between atoms: _397  and  _399
REMARK  155  A    between atoms: _399  and  _400
REMARK  156  A    between atoms: _399  and  _402
REMARK  157  A    between atoms: _402  and  _403
REMARK  158  A    between atoms: _409  and  _411
REMARK  159  A    between atoms: _411  and  _412
REMARK  160  A    between atoms: _411  and  _414
REMARK  161  A    between atoms: _414  and  _415
REMARK  162  A    between atoms: _421  and  _423
REMARK  163  A    between atoms: _423  and  _424
REMARK  164  A    between atoms: _423  and  _426
REMARK  165  A    between atoms: _426  and  _427
REMARK  166  A    between atoms: _432  and  _434
REMARK  167  A    between atoms: _434  and  _435
REMARK  168  A    between atoms: _437  and  _439
REMARK  169  A    between atoms: _439  and  _440
REMARK  170  A    between atoms: _439  and  _442
REMARK  171  A    between atoms: _445  and  _447
REMARK  172  A    between atoms: _447  and  _448
REMARK  173  A    between atoms: _447  and  _450
REMARK  174  A    between atoms: _450  and  _451
REMARK  175  A    between atoms: _461  and  _463
REMARK  176  A    between atoms: _463  and  _464
REMARK  177  A    between atoms: _467  and  _469
REMARK  178  A    between atoms: _469  and  _470
REMARK  179  A    between atoms: _469  and  _472
REMARK  180  A    between atoms: _472  and  _473
REMARK  181  A    between atoms: _473  and  _474
REMARK  182  A    between atoms: _477  and  _479
REMARK  183  A    between atoms: _479  and  _480
REMARK  184  A    between atoms: _479  and  _482
REMARK  185  A    between atoms: _482  and  _483
REMARK  186  A    between atoms: _485  and  _487
REMARK  187  A    between atoms: _487  and  _488
REMARK  188  A    between atoms: _490  and  _492
REMARK  189  A    between atoms: _492  and  _493
REMARK  190  A    between atoms: _495  and  _497
REMARK  191  A    between atoms: _497  and  _498
REMARK  192  A    between atoms: _497  and  _500
REMARK  193  A    between atoms: _500  and  _501
REMARK  194  A    between atoms: _504  and  _506
REMARK  195  A    between atoms: _506  and  _507
REMARK  196  A    between atoms: _506  and  _509
REMARK  197  A    between atoms: _512  and  _514
REMARK  198  A    between atoms: _514  and  _515
REMARK  199  A    between atoms: _517  and  _519
REMARK  200  A    between atoms: _519  and  _520
REMARK  201  A    between atoms: _523  and  _525
REMARK  202  A    between atoms: _525  and  _526
REMARK  203  A    between atoms: _525  and  _528
REMARK  204  A    between atoms: _528  and  _529
REMARK  205  A    between atoms: _535  and  _536
REMARK  206  A    between atoms: _541  and  _543
REMARK  207  A    between atoms: _543  and  _544
REMARK  208  A    between atoms: _543  and  _546
REMARK  209  A    between atoms: _546  and  _547
REMARK  210  A    between atoms: _550  and  _552
REMARK  211  A    between atoms: _552  and  _553
REMARK  212  A    between atoms: _552  and  _555
REMARK  213  A    between atoms: _555  and  _556
REMARK  214  A    between atoms: _558  and  _560
REMARK  215  A    between atoms: _560  and  _561
REMARK  216  A    between atoms: _560  and  _563
REMARK  217  A    between atoms: _563  and  _564
REMARK  218  A    between atoms: _567  and  _569
REMARK  219  A    between atoms: _569  and  _570
REMARK  220  A    between atoms: _569  and  _572
REMARK  221  A    between atoms: _572  and  _573
REMARK  222  A    between atoms: _578  and  _580
REMARK  223  A    between atoms: _580  and  _581
REMARK  224  A    between atoms: _580  and  _583
REMARK  225  A    between atoms: _583  and  _584
REMARK                            x       y       z     vdW  Elec       q    Type
REMARK                         _______ _______ _______ _____ _____    ______ ____
ROOT
ATOM      1  O   HOH     1      15.133   3.426  59.444  0.00  0.00    +0.000 OA
ENDROOT
TORSDOF 0
REMARK  Name = ../refined-set-2016/2w7y/2w7y_pocket.pdb
REMARK  225 active torsions:
REMARK  status: ('A' for Active; 'I' for Inactive)
REMARK    1  A    between atoms: _1  and  _3
REMARK    2  A    between atoms: _3  and  _4
REMARK    3  A    between atoms: _3  and  _6
REMARK    4  A    between atoms: _6  and  _7
REMARK    5  A    between atoms: _12  and  _13
REMARK    6  A    between atoms: _15  and  _17
REMARK    7  A    between atoms: _17  and  _18
REMARK    8  A    between atoms: _17  and  _20
REMARK    9  A    between atoms: _20  and  _21
REMARK   10  A    between atoms: _26  and  _28
REMARK   11  A    between atoms: _28  and  _29
REMARK   12  A    between atoms: _31  and  _33
REMARK   13  A    between atoms: _33  and  _34
REMARK   14  A    between atoms: _33  and  _36
REMARK   15  A    between atoms: _36  and  _37
REMARK   16  A    between atoms: _42  and  _43
REMARK   17  A    between atoms: _45  and  _47
REMARK   18  A    between atoms: _47  and  _48
REMARK   19  A    between atoms: _47  and  _50
REMARK   20  A    between atoms: _50  and  _51
REMARK   21  A    between atoms: _56  and  _58
REMARK   22  A    between atoms: _58  and  _59
REMARK   23  A    between atoms: _58  and  _61
REMARK   24  A    between atoms: _61  and  _62
REMARK   25  A    between atoms: _67  and  _69
REMARK   26  A    between atoms: _69  and  _70
REMARK   27  A    between atoms: _69  and  _72
REMARK   28  A    between atoms: _72  and  _73
REMARK   29  A    between atoms: _83  and  _85
REMARK   30  A    between atoms: _85  and  _86
REMARK   31  A    between atoms: _85  and  _88
REMARK   32  A    between atoms: _91  and  _93
REMARK   33  A    between atoms: _93  and  _94
REMARK   34  A    between atoms: _97  and  _99
REMARK   35  A    between atoms: _99  and  _100
REMARK   36  A    between atoms: _99  and  _102
REMARK   37  A    between atoms: _102  and  _103
REMARK   38  A    between atoms: _103  and  _104
REMARK   39  A    between atoms: _106  and  _108
REMARK   40  A    between atoms: _108  and  _109
REMARK   41  A    between atoms: _108  and  _111
REMARK   42  A    between atoms: _111  and  _112
REMARK   43  A    between atoms: _117  and  _118
REMARK   44  A    between atoms: _120  and  _122
REMARK   45  A    between atoms: _122  and  _123
REMARK   46  A    between atoms: _122  and  _125
REMARK   47  A    between atoms: _128  and  _130
REMARK   48  A    between atoms: _130  and  _131
REMARK   49  A    between atoms: _130  and  _133
REMARK   50  A    between atoms: _133  and  _134
REMARK   51  A    between atoms: _139  and  _141
REMARK   52  A    between atoms: _141  and  _142
REMARK   53  A    between atoms: _144  and  _146
REMARK   54  A    between atoms: _146  and  _147
REMARK   55  A    between atoms: _146  and  _149
REMARK   56  A    between atoms: _149  and  _150
REMARK   57  A    between atoms: _153  and  _155
REMARK   58  A    between atoms: _155  and  _156
REMARK   59  A    between atoms: _155  and  _158
REMARK   60  A    between atoms: _158  and  _159
REMARK   61  A    between atoms: _159  and  _160
REMARK   62  A    between atoms: _160  and  _161
REMARK   63  A    between atoms: _161  and  _162
REMARK   64  A    between atoms: _166  and  _168
REMARK   65  A    between atoms: _168  and  _169
REMARK   66  A    between atoms: _168  and  _171
REMARK   67  A    between atoms: _171  and  _172
REMARK   68  A    between atoms: _175  and  _177
REMARK   69  A    between atoms: _177  and  _178
REMARK   70  A    between atoms: _177  and  _180
REMARK   71  A    between atoms: _180  and  _181
REMARK   72  A    between atoms: _184  and  _186
REMARK   73  A    between atoms: _186  and  _187
REMARK   74  A    between atoms: _190  and  _192
REMARK   75  A    between atoms: _192  and  _193
REMARK   76  A    between atoms: _195  and  _197
REMARK   77  A    between atoms: _197  and  _198
REMARK   78  A    between atoms: _197  and  _200
REMARK   79  A    between atoms: _200  and  _201
REMARK   80  A    between atoms: _206  and  _208
REMARK   81  A    between atoms: _208  and  _209
REMARK   82  A    between atoms: _212  and  _214
REMARK   83  A    between atoms: _214  and  _215
REMARK   84  A    between atoms: _214  and  _217
REMARK   85  A    between atoms: _217  and  _218
REMARK   86  A    between atoms: _223  and  _225
REMARK   87  A    between atoms: _225  and  _226
REMARK   88  A    between atoms: _225  and  _228
REMARK   89  A    between atoms: _228  and  _229
REMARK   90  A    between atoms: _229  and  _230
REMARK   91  A    between atoms: _233  and  _235
REMARK   92  A    between atoms: _235  and  _236
REMARK   93  A    between atoms: _235  and  _238
REMARK   94  A    between atoms: _238  and  _239
REMARK   95  A    between atoms: _239  and  _240
REMARK   96  A    between atoms: _245  and  _247
REMARK   97  A    between atoms: _247  and  _248
REMARK   98  A    between atoms: _247  and  _250
REMARK   99  A    between atoms: _250  and  _251
REMARK  100  A    between atoms: _254  and  _256
REMARK  101  A    between atoms: _256  and  _257
REMARK  102  A    between atoms: _256  and  _259
REMARK  103  A    between atoms: _259  and  _260
REMARK  104  A    between atoms: _266  and  _268
REMARK  105  A    between atoms: _268  and  _269
REMARK  106  A    between atoms: _268  and  _271
REMARK  107  A    between atoms: _271  and  _272
REMARK  108  A    between atoms: _275  and  _277
REMARK  109  A    between atoms: _277  and  _278
REMARK  110  A    between atoms: _277  and  _280
REMARK  111  A    between atoms: _280  and  _281
REMARK  112  A    between atoms: _281  and  _282
REMARK  113  A    between atoms: _284  and  _286
REMARK  114  A    between atoms: _286  and  _287
REMARK  115  A    between atoms: _286  and  _289
REMARK  116  A    between atoms: _289  and  _290
REMARK  117  A    between atoms: _300  and  _302
REMARK  118  A    between atoms: _302  and  _303
REMARK  119  A    between atoms: _302  and  _305
REMARK  120  A    between atoms: _305  and  _306
REMARK  121  A    between atoms: _306  and  _307
REMARK  122  A    between atoms: _311  and  _312
REMARK  123  A    between atoms: _317  and  _319
REMARK  124  A    between atoms: _319  and  _320
REMARK  125  A    between atoms: _319  and  _322
REMARK  126  A    between atoms: _322  and  _323
REMARK  127  A    between atoms: _326  and  _328
REMARK  128  A    between atoms: _328  and  _329
REMARK  129  A    between atoms: _328  and  _331
REMARK  130  A    between atoms: _331  and  _332
REMARK  131  A    between atoms: _332  and  _333
REMARK  132  A    between atoms: _333  and  _334
REMARK  133  A    between atoms: _343  and  _345
REMARK  134  A    between atoms: _345  and  _346
REMARK  135  A    between atoms: _345  and  _348
REMARK  136  A    between atoms: _348  and  _349
REMARK  137  A    between atoms: _352  and  _354
REMARK  138  A    between atoms: _354  and  _355
REMARK  139  A    between atoms: _358  and  _360
REMARK  140  A    between atoms: _360  and  _361
REMARK  141  A    between atoms: _360  and  _363
REMARK  142  A    between atoms: _363  and  _364
REMARK  143  A    between atoms: _369  and  _371
REMARK  144  A    between atoms: _371  and  _372
REMARK  145  A    between atoms: _375  and  _377
REMARK  146  A    between atoms: _377  and  _378
REMARK  147  A    between atoms: _377  and  _380
REMARK  148  A    between atoms: _380  and  _381
REMARK  149  A    between atoms: _386  and  _387
REMARK  150  A    between atoms: _389  and  _391
REMARK  151  A    between atoms: _391  and  _392
REMARK  152  A    between atoms: _391  and  _394
REMARK  153  A    between atoms: _394  and  _395
REMARK  154  A    between atoms: _397  and  _399
REMARK  155  A    between atoms: _399  and  _400
REMARK  156  A    between atoms: _399  and  _402
REMARK  157  A    between atoms: _402  and  _403
REMARK  158  A    between atoms: _409  and  _411
REMARK  159  A    between atoms: _411  and  _412
REMARK  160  A    between atoms: _411  and  _414
REMARK  161  A    between atoms: _414  and  _415
REMARK  162  A    between atoms: _421  and  _423
REMARK  163  A    between atoms: _423  and  _424
REMARK  164  A    between atoms: _423  and  _426
REMARK  165  A    between atoms: _426  and  _427
REMARK  166  A    between atoms: _432  and  _434
REMARK  167  A    between atoms: _434  and  _435
REMARK  168  A    between atoms: _437  and  _439
REMARK  169  A    between atoms: _439  and  _440
REMARK  170  A    between atoms: _439  and  _442
REMARK  171  A    between atoms: _445  and  _447
REMARK  172  A    between atoms: _447  and  _448
REMARK  173  A    between atoms: _447  and  _450
REMARK  174  A    between atoms: _450  and  _451
REMARK  175  A    between atoms: _461  and  _463
REMARK  176  A    between atoms: _463  and  _464
REMARK  177  A    between atoms: _467  and  _469
REMARK  178  A    between atoms: _469  and  _470
REMARK  179  A    between atoms: _469  and  _472
REMARK  180  A    between atoms: _472  and  _473
REMARK  181  A    between atoms: _473  and  _474
REMARK  182  A    between atoms: _477  and  _479
REMARK  183  A    between atoms: _479  and  _480
REMARK  184  A    between atoms: _479  and  _482
REMARK  185  A    between atoms: _482  and  _483
REMARK  186  A    between atoms: _485  and  _487
REMARK  187  A    between atoms: _487  and  _488
REMARK  188  A    between atoms: _490  and  _492
REMARK  189  A    between atoms: _492  and  _493
REMARK  190  A    between atoms: _495  and  _497
REMARK  191  A    between atoms: _497  and  _498
REMARK  192  A    between atoms: _497  and  _500
REMARK  193  A    between atoms: _500  and  _501
REMARK  194  A    between atoms: _504  and  _506
REMARK  195  A    between atoms: _506  and  _507
REMARK  196  A    between atoms: _506  and  _509
REMARK  197  A    between atoms: _512  and  _514
REMARK  198  A    between atoms: _514  and  _515
REMARK  199  A    between atoms: _517  and  _519
REMARK  200  A    between atoms: _519  and  _520
REMARK  201  A    between atoms: _523  and  _525
REMARK  202  A    between atoms: _525  and  _526
REMARK  203  A    between atoms: _525  and  _528
REMARK  204  A    between atoms: _528  and  _529
REMARK  205  A    between atoms: _535  and  _536
REMARK  206  A    between atoms: _541  and  _543
REMARK  207  A    between atoms: _543  and  _544
REMARK  208  A    between atoms: _543  and  _546
REMARK  209  A    between atoms: _546  and  _547
REMARK  210  A    between atoms: _550  and  _552
REMARK  211  A    between atoms: _552  and  _553
REMARK  212  A    between atoms: _552  and  _555
REMARK  213  A    between atoms: _555  and  _556
REMARK  214  A    between atoms: _558  and  _560
REMARK  215  A    between atoms: _560  and  _561
REMARK  216  A    between atoms: _560  and  _563
REMARK  217  A    between atoms: _563  and  _564
REMARK  218  A    between atoms: _567  and  _569
REMARK  219  A    between atoms: _569  and  _570
REMARK  220  A    between atoms: _569  and  _572
REMARK  221  A    between atoms: _572  and  _573
REMARK  222  A    between atoms: _578  and  _580
REMARK  223  A    between atoms: _580  and  _581
REMARK  224  A    between atoms: _580  and  _583
REMARK  225  A    between atoms: _583  and  _584
REMARK                            x       y       z     vdW  Elec       q    Type
REMARK                         _______ _______ _______ _____ _____    ______ ____
ROOT
ATOM      1  O   HOH     1      20.797   4.420  56.797  0.00  0.00    +0.000 OA
ENDROOT
TORSDOF 0
REMARK  Name = ../refined-set-2016/2w7y/2w7y_pocket.pdb
REMARK  225 active torsions:
REMARK  status: ('A' for Active; 'I' for Inactive)
REMARK    1  A    between atoms: _1  and  _3
REMARK    2  A    between atoms: _3  and  _4
REMARK    3  A    between atoms: _3  and  _6
REMARK    4  A    between atoms: _6  and  _7
REMARK    5  A    between atoms: _12  and  _13
REMARK    6  A    between atoms: _15  and  _17
REMARK    7  A    between atoms: _17  and  _18
REMARK    8  A    between atoms: _17  and  _20
REMARK    9  A    between atoms: _20  and  _21
REMARK   10  A    between atoms: _26  and  _28
REMARK   11  A    between atoms: _28  and  _29
REMARK   12  A    between atoms: _31  and  _33
REMARK   13  A    between atoms: _33  and  _34
REMARK   14  A    between atoms: _33  and  _36
REMARK   15  A    between atoms: _36  and  _37
REMARK   16  A    between atoms: _42  and  _43
REMARK   17  A    between atoms: _45  and  _47
REMARK   18  A    between atoms: _47  and  _48
REMARK   19  A    between atoms: _47  and  _50
REMARK   20  A    between atoms: _50  and  _51
REMARK   21  A    between atoms: _56  and  _58
REMARK   22  A    between atoms: _58  and  _59
REMARK   23  A    between atoms: _58  and  _61
REMARK   24  A    between atoms: _61  and  _62
REMARK   25  A    between atoms: _67  and  _69
REMARK   26  A    between atoms: _69  and  _70
REMARK   27  A    between atoms: _69  and  _72
REMARK   28  A    between atoms: _72  and  _73
REMARK   29  A    between atoms: _83  and  _85
REMARK   30  A    between atoms: _85  and  _86
REMARK   31  A    between atoms: _85  and  _88
REMARK   32  A    between atoms: _91  and  _93
REMARK   33  A    between atoms: _93  and  _94
REMARK   34  A    between atoms: _97  and  _99
REMARK   35  A    between atoms: _99  and  _100
REMARK   36  A    between atoms: _99  and  _102
REMARK   37  A    between atoms: _102  and  _103
REMARK   38  A    between atoms: _103  and  _104
REMARK   39  A    between atoms: _106  and  _108
REMARK   40  A    between atoms: _108  and  _109
REMARK   41  A    between atoms: _108  and  _111
REMARK   42  A    between atoms: _111  and  _112
REMARK   43  A    between atoms: _117  and  _118
REMARK   44  A    between atoms: _120  and  _122
REMARK   45  A    between atoms: _122  and  _123
REMARK   46  A    between atoms: _122  and  _125
REMARK   47  A    between atoms: _128  and  _130
REMARK   48  A    between atoms: _130  and  _131
REMARK   49  A    between atoms: _130  and  _133
REMARK   50  A    between atoms: _133  and  _134
REMARK   51  A    between atoms: _139  and  _141
REMARK   52  A    between atoms: _141  and  _142
REMARK   53  A    between atoms: _144  and  _146
REMARK   54  A    between atoms: _146  and  _147
REMARK   55  A    between atoms: _146  and  _149
REMARK   56  A    between atoms: _149  and  _150
REMARK   57  A    between atoms: _153  and  _155
REMARK   58  A    between atoms: _155  and  _156
REMARK   59  A    between atoms: _155  and  _158
REMARK   60  A    between atoms: _158  and  _159
REMARK   61  A    between atoms: _159  and  _160
REMARK   62  A    between atoms: _160  and  _161
REMARK   63  A    between atoms: _161  and  _162
REMARK   64  A    between atoms: _166  and  _168
REMARK   65  A    between atoms: _168  and  _169
REMARK   66  A    between atoms: _168  and  _171
REMARK   67  A    between atoms: _171  and  _172
REMARK   68  A    between atoms: _175  and  _177
REMARK   69  A    between atoms: _177  and  _178
REMARK   70  A    between atoms: _177  and  _180
REMARK   71  A    between atoms: _180  and  _181
REMARK   72  A    between atoms: _184  and  _186
REMARK   73  A    between atoms: _186  and  _187
REMARK   74  A    between atoms: _190  and  _192
REMARK   75  A    between atoms: _192  and  _193
REMARK   76  A    between atoms: _195  and  _197
REMARK   77  A    between atoms: _197  and  _198
REMARK   78  A    between atoms: _197  and  _200
REMARK   79  A    between atoms: _200  and  _201
REMARK   80  A    between atoms: _206  and  _208
REMARK   81  A    between atoms: _208  and  _209
REMARK   82  A    between atoms: _212  and  _214
REMARK   83  A    between atoms: _214  and  _215
REMARK   84  A    between atoms: _214  and  _217
REMARK   85  A    between atoms: _217  and  _218
REMARK   86  A    between atoms: _223  and  _225
REMARK   87  A    between atoms: _225  and  _226
REMARK   88  A    between atoms: _225  and  _228
REMARK   89  A    between atoms: _228  and  _229
REMARK   90  A    between atoms: _229  and  _230
REMARK   91  A    between atoms: _233  and  _235
REMARK   92  A    between atoms: _235  and  _236
REMARK   93  A    between atoms: _235  and  _238
REMARK   94  A    between atoms: _238  and  _239
REMARK   95  A    between atoms: _239  and  _240
REMARK   96  A    between atoms: _245  and  _247
REMARK   97  A    between atoms: _247  and  _248
REMARK   98  A    between atoms: _247  and  _250
REMARK   99  A    between atoms: _250  and  _251
REMARK  100  A    between atoms: _254  and  _256
REMARK  101  A    between atoms: _256  and  _257
REMARK  102  A    between atoms: _256  and  _259
REMARK  103  A    between atoms: _259  and  _260
REMARK  104  A    between atoms: _266  and  _268
REMARK  105  A    between atoms: _268  and  _269
REMARK  106  A    between atoms: _268  and  _271
REMARK  107  A    between atoms: _271  and  _272
REMARK  108  A    between atoms: _275  and  _277
REMARK  109  A    between atoms: _277  and  _278
REMARK  110  A    between atoms: _277  and  _280
REMARK  111  A    between atoms: _280  and  _281
REMARK  112  A    between atoms: _281  and  _282
REMARK  113  A    between atoms: _284  and  _286
REMARK  114  A    between atoms: _286  and  _287
REMARK  115  A    between atoms: _286  and  _289
REMARK  116  A    between atoms: _289  and  _290
REMARK  117  A    between atoms: _300  and  _302
REMARK  118  A    between atoms: _302  and  _303
REMARK  119  A    between atoms: _302  and  _305
REMARK  120  A    between atoms: _305  and  _306
REMARK  121  A    between atoms: _306  and  _307
REMARK  122  A    between atoms: _311  and  _312
REMARK  123  A    between atoms: _317  and  _319
REMARK  124  A    between atoms: _319  and  _320
REMARK  125  A    between atoms: _319  and  _322
REMARK  126  A    between atoms: _322  and  _323
REMARK  127  A    between atoms: _326  and  _328
REMARK  128  A    between atoms: _328  and  _329
REMARK  129  A    between atoms: _328  and  _331
REMARK  130  A    between atoms: _331  and  _332
REMARK  131  A    between atoms: _332  and  _333
REMARK  132  A    between atoms: _333  and  _334
REMARK  133  A    between atoms: _343  and  _345
REMARK  134  A    between atoms: _345  and  _346
REMARK  135  A    between atoms: _345  and  _348
REMARK  136  A    between atoms: _348  and  _349
REMARK  137  A    between atoms: _352  and  _354
REMARK  138  A    between atoms: _354  and  _355
REMARK  139  A    between atoms: _358  and  _360
REMARK  140  A    between atoms: _360  and  _361
REMARK  141  A    between atoms: _360  and  _363
REMARK  142  A    between atoms: _363  and  _364
REMARK  143  A    between atoms: _369  and  _371
REMARK  144  A    between atoms: _371  and  _372
REMARK  145  A    between atoms: _375  and  _377
REMARK  146  A    between atoms: _377  and  _378
REMARK  147  A    between atoms: _377  and  _380
REMARK  148  A    between atoms: _380  and  _381
REMARK  149  A    between atoms: _386  and  _387
REMARK  150  A    between atoms: _389  and  _391
REMARK  151  A    between atoms: _391  and  _392
REMARK  152  A    between atoms: _391  and  _394
REMARK  153  A    between atoms: _394  and  _395
REMARK  154  A    between atoms: _397  and  _399
REMARK  155  A    between atoms: _399  and  _400
REMARK  156  A    between atoms: _399  and  _402
REMARK  157  A    between atoms: _402  and  _403
REMARK  158  A    between atoms: _409  and  _411
REMARK  159  A    between atoms: _411  and  _412
REMARK  160  A    between atoms: _411  and  _414
REMARK  161  A    between atoms: _414  and  _415
REMARK  162  A    between atoms: _421  and  _423
REMARK  163  A    between atoms: _423  and  _424
REMARK  164  A    between atoms: _423  and  _426
REMARK  165  A    between atoms: _426  and  _427
REMARK  166  A    between atoms: _432  and  _434
REMARK  167  A    between atoms: _434  and  _435
REMARK  168  A    between atoms: _437  and  _439
REMARK  169  A    between atoms: _439  and  _440
REMARK  170  A    between atoms: _439  and  _442
REMARK  171  A    between atoms: _445  and  _447
REMARK  172  A    between atoms: _447  and  _448
REMARK  173  A    between atoms: _447  and  _450
REMARK  174  A    between atoms: _450  and  _451
REMARK  175  A    between atoms: _461  and  _463
REMARK  176  A    between atoms: _463  and  _464
REMARK  177  A    between atoms: _467  and  _469
REMARK  178  A    between atoms: _469  and  _470
REMARK  179  A    between atoms: _469  and  _472
REMARK  180  A    between atoms: _472  and  _473
REMARK  181  A    between atoms: _473  and  _474
REMARK  182  A    between atoms: _477  and  _479
REMARK  183  A    between atoms: _479  and  _480
REMARK  184  A    between atoms: _479  and  _482
REMARK  185  A    between atoms: _482  and  _483
REMARK  186  A    between atoms: _485  and  _487
REMARK  187  A    between atoms: _487  and  _488
REMARK  188  A    between atoms: _490  and  _492
REMARK  189  A    between atoms: _492  and  _493
REMARK  190  A    between atoms: _495  and  _497
REMARK  191  A    between atoms: _497  and  _498
REMARK  192  A    between atoms: _497  and  _500
REMARK  193  A    between atoms: _500  and  _501
REMARK  194  A    between atoms: _504  and  _506
REMARK  195  A    between atoms: _506  and  _507
REMARK  196  A    between atoms: _506  and  _509
REMARK  197  A    between atoms: _512  and  _514
REMARK  198  A    between atoms: _514  and  _515
REMARK  199  A    between atoms: _517  and  _519
REMARK  200  A    between atoms: _519  and  _520
REMARK  201  A    between atoms: _523  and  _525
REMARK  202  A    between atoms: _525  and  _526
REMARK  203  A    between atoms: _525  and  _528
REMARK  204  A    between atoms: _528  and  _529
REMARK  205  A    between atoms: _535  and  _536
REMARK  206  A    between atoms: _541  and  _543
REMARK  207  A    between atoms: _543  and  _544
REMARK  208  A    between atoms: _543  and  _546
REMARK  209  A    between atoms: _546  and  _547
REMARK  210  A    between atoms: _550  and  _552
REMARK  211  A    between atoms: _552  and  _553
REMARK  212  A    between atoms: _552  and  _555
REMARK  213  A    between atoms: _555  and  _556
REMARK  214  A    between atoms: _558  and  _560
REMARK  215  A    between atoms: _560  and  _561
REMARK  216  A    between atoms: _560  and  _563
REMARK  217  A    between atoms: _563  and  _564
REMARK  218  A    between atoms: _567  and  _569
REMARK  219  A    between atoms: _569  and  _570
REMARK  220  A    between atoms: _569  and  _572
REMARK  221  A    between atoms: _572  and  _573
REMARK  222  A    between atoms: _578  and  _580
REMARK  223  A    between atoms: _580  and  _581
REMARK  224  A    between atoms: _580  and  _583
REMARK  225  A    between atoms: _583  and  _584
REMARK                            x       y       z     vdW  Elec       q    Type
REMARK                         _______ _______ _______ _____ _____    ______ ____
ROOT
ATOM      1  O   HOH     1      19.602   0.647  51.202  0.00  0.00    +0.000 OA
ENDROOT
TORSDOF 0
REMARK  Name = ../refined-set-2016/2w7y/2w7y_pocket.pdb
REMARK  225 active torsions:
REMARK  status: ('A' for Active; 'I' for Inactive)
REMARK    1  A    between atoms: _1  and  _3
REMARK    2  A    between atoms: _3  and  _4
REMARK    3  A    between atoms: _3  and  _6
REMARK    4  A    between atoms: _6  and  _7
REMARK    5  A    between atoms: _12  and  _13
REMARK    6  A    between atoms: _15  and  _17
REMARK    7  A    between atoms: _17  and  _18
REMARK    8  A    between atoms: _17  and  _20
REMARK    9  A    between atoms: _20  and  _21
REMARK   10  A    between atoms: _26  and  _28
REMARK   11  A    between atoms: _28  and  _29
REMARK   12  A    between atoms: _31  and  _33
REMARK   13  A    between atoms: _33  and  _34
REMARK   14  A    between atoms: _33  and  _36
REMARK   15  A    between atoms: _36  and  _37
REMARK   16  A    between atoms: _42  and  _43
REMARK   17  A    between atoms: _45  and  _47
REMARK   18  A    between atoms: _47  and  _48
REMARK   19  A    between atoms: _47  and  _50
REMARK   20  A    between atoms: _50  and  _51
REMARK   21  A    between atoms: _56  and  _58
REMARK   22  A    between atoms: _58  and  _59
REMARK   23  A    between atoms: _58  and  _61
REMARK   24  A    between atoms: _61  and  _62
REMARK   25  A    between atoms: _67  and  _69
REMARK   26  A    between atoms: _69  and  _70
REMARK   27  A    between atoms: _69  and  _72
REMARK   28  A    between atoms: _72  and  _73
REMARK   29  A    between atoms: _83  and  _85
REMARK   30  A    between atoms: _85  and  _86
REMARK   31  A    between atoms: _85  and  _88
REMARK   32  A    between atoms: _91  and  _93
REMARK   33  A    between atoms: _93  and  _94
REMARK   34  A    between atoms: _97  and  _99
REMARK   35  A    between atoms: _99  and  _100
REMARK   36  A    between atoms: _99  and  _102
REMARK   37  A    between atoms: _102  and  _103
REMARK   38  A    between atoms: _103  and  _104
REMARK   39  A    between atoms: _106  and  _108
REMARK   40  A    between atoms: _108  and  _109
REMARK   41  A    between atoms: _108  and  _111
REMARK   42  A    between atoms: _111  and  _112
REMARK   43  A    between atoms: _117  and  _118
REMARK   44  A    between atoms: _120  and  _122
REMARK   45  A    between atoms: _122  and  _123
REMARK   46  A    between atoms: _122  and  _125
REMARK   47  A    between atoms: _128  and  _130
REMARK   48  A    between atoms: _130  and  _131
REMARK   49  A    between atoms: _130  and  _133
REMARK   50  A    between atoms: _133  and  _134
REMARK   51  A    between atoms: _139  and  _141
REMARK   52  A    between atoms: _141  and  _142
REMARK   53  A    between atoms: _144  and  _146
REMARK   54  A    between atoms: _146  and  _147
REMARK   55  A    between atoms: _146  and  _149
REMARK   56  A    between atoms: _149  and  _150
REMARK   57  A    between atoms: _153  and  _155
REMARK   58  A    between atoms: _155  and  _156
REMARK   59  A    between atoms: _155  and  _158
REMARK   60  A    between atoms: _158  and  _159
REMARK   61  A    between atoms: _159  and  _160
REMARK   62  A    between atoms: _160  and  _161
REMARK   63  A    between atoms: _161  and  _162
REMARK   64  A    between atoms: _166  and  _168
REMARK   65  A    between atoms: _168  and  _169
REMARK   66  A    between atoms: _168  and  _171
REMARK   67  A    between atoms: _171  and  _172
REMARK   68  A    between atoms: _175  and  _177
REMARK   69  A    between atoms: _177  and  _178
REMARK   70  A    between atoms: _177  and  _180
REMARK   71  A    between atoms: _180  and  _181
REMARK   72  A    between atoms: _184  and  _186
REMARK   73  A    between atoms: _186  and  _187
REMARK   74  A    between atoms: _190  and  _192
REMARK   75  A    between atoms: _192  and  _193
REMARK   76  A    between atoms: _195  and  _197
REMARK   77  A    between atoms: _197  and  _198
REMARK   78  A    between atoms: _197  and  _200
REMARK   79  A    between atoms: _200  and  _201
REMARK   80  A    between atoms: _206  and  _208
REMARK   81  A    between atoms: _208  and  _209
REMARK   82  A    between atoms: _212  and  _214
REMARK   83  A    between atoms: _214  and  _215
REMARK   84  A    between atoms: _214  and  _217
REMARK   85  A    between atoms: _217  and  _218
REMARK   86  A    between atoms: _223  and  _225
REMARK   87  A    between atoms: _225  and  _226
REMARK   88  A    between atoms: _225  and  _228
REMARK   89  A    between atoms: _228  and  _229
REMARK   90  A    between atoms: _229  and  _230
REMARK   91  A    between atoms: _233  and  _235
REMARK   92  A    between atoms: _235  and  _236
REMARK   93  A    between atoms: _235  and  _238
REMARK   94  A    between atoms: _238  and  _239
REMARK   95  A    between atoms: _239  and  _240
REMARK   96  A    between atoms: _245  and  _247
REMARK   97  A    between atoms: _247  and  _248
REMARK   98  A    between atoms: _247  and  _250
REMARK   99  A    between atoms: _250  and  _251
REMARK  100  A    between atoms: _254  and  _256
REMARK  101  A    between atoms: _256  and  _257
REMARK  102  A    between atoms: _256  and  _259
REMARK  103  A    between atoms: _259  and  _260
REMARK  104  A    between atoms: _266  and  _268
REMARK  105  A    between atoms: _268  and  _269
REMARK  106  A    between atoms: _268  and  _271
REMARK  107  A    between atoms: _271  and  _272
REMARK  108  A    between atoms: _275  and  _277
REMARK  109  A    between atoms: _277  and  _278
REMARK  110  A    between atoms: _277  and  _280
REMARK  111  A    between atoms: _280  and  _281
REMARK  112  A    between atoms: _281  and  _282
REMARK  113  A    between atoms: _284  and  _286
REMARK  114  A    between atoms: _286  and  _287
REMARK  115  A    between atoms: _286  and  _289
REMARK  116  A    between atoms: _289  and  _290
REMARK  117  A    between atoms: _300  and  _302
REMARK  118  A    between atoms: _302  and  _303
REMARK  119  A    between atoms: _302  and  _305
REMARK  120  A    between atoms: _305  and  _306
REMARK  121  A    between atoms: _306  and  _307
REMARK  122  A    between atoms: _311  and  _312
REMARK  123  A    between atoms: _317  and  _319
REMARK  124  A    between atoms: _319  and  _320
REMARK  125  A    between atoms: _319  and  _322
REMARK  126  A    between atoms: _322  and  _323
REMARK  127  A    between atoms: _326  and  _328
REMARK  128  A    between atoms: _328  and  _329
REMARK  129  A    between atoms: _328  and  _331
REMARK  130  A    between atoms: _331  and  _332
REMARK  131  A    between atoms: _332  and  _333
REMARK  132  A    between atoms: _333  and  _334
REMARK  133  A    between atoms: _343  and  _345
REMARK  134  A    between atoms: _345  and  _346
REMARK  135  A    between atoms: _345  and  _348
REMARK  136  A    between atoms: _348  and  _349
REMARK  137  A    between atoms: _352  and  _354
REMARK  138  A    between atoms: _354  and  _355
REMARK  139  A    between atoms: _358  and  _360
REMARK  140  A    between atoms: _360  and  _361
REMARK  141  A    between atoms: _360  and  _363
REMARK  142  A    between atoms: _363  and  _364
REMARK  143  A    between atoms: _369  and  _371
REMARK  144  A    between atoms: _371  and  _372
REMARK  145  A    between atoms: _375  and  _377
REMARK  146  A    between atoms: _377  and  _378
REMARK  147  A    between atoms: _377  and  _380
REMARK  148  A    between atoms: _380  and  _381
REMARK  149  A    between atoms: _386  and  _387
REMARK  150  A    between atoms: _389  and  _391
REMARK  151  A    between atoms: _391  and  _392
REMARK  152  A    between atoms: _391  and  _394
REMARK  153  A    between atoms: _394  and  _395
REMARK  154  A    between atoms: _397  and  _399
REMARK  155  A    between atoms: _399  and  _400
REMARK  156  A    between atoms: _399  and  _402
REMARK  157  A    between atoms: _402  and  _403
REMARK  158  A    between atoms: _409  and  _411
REMARK  159  A    between atoms: _411  and  _412
REMARK  160  A    between atoms: _411  and  _414
REMARK  161  A    between atoms: _414  and  _415
REMARK  162  A    between atoms: _421  and  _423
REMARK  163  A    between atoms: _423  and  _424
REMARK  164  A    between atoms: _423  and  _426
REMARK  165  A    between atoms: _426  and  _427
REMARK  166  A    between atoms: _432  and  _434
REMARK  167  A    between atoms: _434  and  _435
REMARK  168  A    between atoms: _437  and  _439
REMARK  169  A    between atoms: _439  and  _440
REMARK  170  A    between atoms: _439  and  _442
REMARK  171  A    between atoms: _445  and  _447
REMARK  172  A    between atoms: _447  and  _448
REMARK  173  A    between atoms: _447  and  _450
REMARK  174  A    between atoms: _450  and  _451
REMARK  175  A    between atoms: _461  and  _463
REMARK  176  A    between atoms: _463  and  _464
REMARK  177  A    between atoms: _467  and  _469
REMARK  178  A    between atoms: _469  and  _470
REMARK  179  A    between atoms: _469  and  _472
REMARK  180  A    between atoms: _472  and  _473
REMARK  181  A    between atoms: _473  and  _474
REMARK  182  A    between atoms: _477  and  _479
REMARK  183  A    between atoms: _479  and  _480
REMARK  184  A    between atoms: _479  and  _482
REMARK  185  A    between atoms: _482  and  _483
REMARK  186  A    between atoms: _485  and  _487
REMARK  187  A    between atoms: _487  and  _488
REMARK  188  A    between atoms: _490  and  _492
REMARK  189  A    between atoms: _492  and  _493
REMARK  190  A    between atoms: _495  and  _497
REMARK  191  A    between atoms: _497  and  _498
REMARK  192  A    between atoms: _497  and  _500
REMARK  193  A    between atoms: _500  and  _501
REMARK  194  A    between atoms: _504  and  _506
REMARK  195  A    between atoms: _506  and  _507
REMARK  196  A    between atoms: _506  and  _509
REMARK  197  A    between atoms: _512  and  _514
REMARK  198  A    between atoms: _514  and  _515
REMARK  199  A    between atoms: _517  and  _519
REMARK  200  A    between atoms: _519  and  _520
REMARK  201  A    between atoms: _523  and  _525
REMARK  202  A    between atoms: _525  and  _526
REMARK  203  A    between atoms: _525  and  _528
REMARK  204  A    between atoms: _528  and  _529
REMARK  205  A    between atoms: _535  and  _536
REMARK  206  A    between atoms: _541  and  _543
REMARK  207  A    between atoms: _543  and  _544
REMARK  208  A    between atoms: _543  and  _546
REMARK  209  A    between atoms: _546  and  _547
REMARK  210  A    between atoms: _550  and  _552
REMARK  211  A    between atoms: _552  and  _553
REMARK  212  A    between atoms: _552  and  _555
REMARK  213  A    between atoms: _555  and  _556
REMARK  214  A    between atoms: _558  and  _560
REMARK  215  A    between atoms: _560  and  _561
REMARK  216  A    between atoms: _560  and  _563
REMARK  217  A    between atoms: _563  and  _564
REMARK  218  A    between atoms: _567  and  _569
REMARK  219  A    between atoms: _569  and  _570
REMARK  220  A    between atoms: _569  and  _572
REMARK  221  A    between atoms: _572  and  _573
REMARK  222  A    between atoms: _578  and  _580
REMARK  223  A    between atoms: _580  and  _581
REMARK  224  A    between atoms: _580  and  _583
REMARK  225  A    between atoms: _583  and  _584
REMARK                            x       y       z     vdW  Elec       q    Type
REMARK                         _______ _______ _______ _____ _____    ______ ____
ROOT
ATOM      1  O   HOH     1      13.506  -3.620  51.370  0.00  0.00    +0.000 OA
ENDROOT
TORSDOF 0
REMARK  Name = ../refined-set-2016/2w7y/2w7y_pocket.pdb
REMARK  225 active torsions:
REMARK  status: ('A' for Active; 'I' for Inactive)
REMARK    1  A    between atoms: _1  and  _3
REMARK    2  A    between atoms: _3  and  _4
REMARK    3  A    between atoms: _3  and  _6
REMARK    4  A    between atoms: _6  and  _7
REMARK    5  A    between atoms: _12  and  _13
REMARK    6  A    between atoms: _15  and  _17
REMARK    7  A    between atoms: _17  and  _18
REMARK    8  A    between atoms: _17  and  _20
REMARK    9  A    between atoms: _20  and  _21
REMARK   10  A    between atoms: _26  and  _28
REMARK   11  A    between atoms: _28  and  _29
REMARK   12  A    between atoms: _31  and  _33
REMARK   13  A    between atoms: _33  and  _34
REMARK   14  A    between atoms: _33  and  _36
REMARK   15  A    between atoms: _36  and  _37
REMARK   16  A    between atoms: _42  and  _43
REMARK   17  A    between atoms: _45  and  _47
REMARK   18  A    between atoms: _47  and  _48
REMARK   19  A    between atoms: _47  and  _50
REMARK   20  A    between atoms: _50  and  _51
REMARK   21  A    between atoms: _56  and  _58
REMARK   22  A    between atoms: _58  and  _59
REMARK   23  A    between atoms: _58  and  _61
REMARK   24  A    between atoms: _61  and  _62
REMARK   25  A    between atoms: _67  and  _69
REMARK   26  A    between atoms: _69  and  _70
REMARK   27  A    between atoms: _69  and  _72
REMARK   28  A    between atoms: _72  and  _73
REMARK   29  A    between atoms: _83  and  _85
REMARK   30  A    between atoms: _85  and  _86
REMARK   31  A    between atoms: _85  and  _88
REMARK   32  A    between atoms: _91  and  _93
REMARK   33  A    between atoms: _93  and  _94
REMARK   34  A    between atoms: _97  and  _99
REMARK   35  A    between atoms: _99  and  _100
REMARK   36  A    between atoms: _99  and  _102
REMARK   37  A    between atoms: _102  and  _103
REMARK   38  A    between atoms: _103  and  _104
REMARK   39  A    between atoms: _106  and  _108
REMARK   40  A    between atoms: _108  and  _109
REMARK   41  A    between atoms: _108  and  _111
REMARK   42  A    between atoms: _111  and  _112
REMARK   43  A    between atoms: _117  and  _118
REMARK   44  A    between atoms: _120  and  _122
REMARK   45  A    between atoms: _122  and  _123
REMARK   46  A    between atoms: _122  and  _125
REMARK   47  A    between atoms: _128  and  _130
REMARK   48  A    between atoms: _130  and  _131
REMARK   49  A    between atoms: _130  and  _133
REMARK   50  A    between atoms: _133  and  _134
REMARK   51  A    between atoms: _139  and  _141
REMARK   52  A    between atoms: _141  and  _142
REMARK   53  A    between atoms: _144  and  _146
REMARK   54  A    between atoms: _146  and  _147
REMARK   55  A    between atoms: _146  and  _149
REMARK   56  A    between atoms: _149  and  _150
REMARK   57  A    between atoms: _153  and  _155
REMARK   58  A    between atoms: _155  and  _156
REMARK   59  A    between atoms: _155  and  _158
REMARK   60  A    between atoms: _158  and  _159
REMARK   61  A    between atoms: _159  and  _160
REMARK   62  A    between atoms: _160  and  _161
REMARK   63  A    between atoms: _161  and  _162
REMARK   64  A    between atoms: _166  and  _168
REMARK   65  A    between atoms: _168  and  _169
REMARK   66  A    between atoms: _168  and  _171
REMARK   67  A    between atoms: _171  and  _172
REMARK   68  A    between atoms: _175  and  _177
REMARK   69  A    between atoms: _177  and  _178
REMARK   70  A    between atoms: _177  and  _180
REMARK   71  A    between atoms: _180  and  _181
REMARK   72  A    between atoms: _184  and  _186
REMARK   73  A    between atoms: _186  and  _187
REMARK   74  A    between atoms: _190  and  _192
REMARK   75  A    between atoms: _192  and  _193
REMARK   76  A    between atoms: _195  and  _197
REMARK   77  A    between atoms: _197  and  _198
REMARK   78  A    between atoms: _197  and  _200
REMARK   79  A    between atoms: _200  and  _201
REMARK   80  A    between atoms: _206  and  _208
REMARK   81  A    between atoms: _208  and  _209
REMARK   82  A    between atoms: _212  and  _214
REMARK   83  A    between atoms: _214  and  _215
REMARK   84  A    between atoms: _214  and  _217
REMARK   85  A    between atoms: _217  and  _218
REMARK   86  A    between atoms: _223  and  _225
REMARK   87  A    between atoms: _225  and  _226
REMARK   88  A    between atoms: _225  and  _228
REMARK   89  A    between atoms: _228  and  _229
REMARK   90  A    between atoms: _229  and  _230
REMARK   91  A    between atoms: _233  and  _235
REMARK   92  A    between atoms: _235  and  _236
REMARK   93  A    between atoms: _235  and  _238
REMARK   94  A    between atoms: _238  and  _239
REMARK   95  A    between atoms: _239  and  _240
REMARK   96  A    between atoms: _245  and  _247
REMARK   97  A    between atoms: _247  and  _248
REMARK   98  A    between atoms: _247  and  _250
REMARK   99  A    between atoms: _250  and  _251
REMARK  100  A    between atoms: _254  and  _256
REMARK  101  A    between atoms: _256  and  _257
REMARK  102  A    between atoms: _256  and  _259
REMARK  103  A    between atoms: _259  and  _260
REMARK  104  A    between atoms: _266  and  _268
REMARK  105  A    between atoms: _268  and  _269
REMARK  106  A    between atoms: _268  and  _271
REMARK  107  A    between atoms: _271  and  _272
REMARK  108  A    between atoms: _275  and  _277
REMARK  109  A    between atoms: _277  and  _278
REMARK  110  A    between atoms: _277  and  _280
REMARK  111  A    between atoms: _280  and  _281
REMARK  112  A    between atoms: _281  and  _282
REMARK  113  A    between atoms: _284  and  _286
REMARK  114  A    between atoms: _286  and  _287
REMARK  115  A    between atoms: _286  and  _289
REMARK  116  A    between atoms: _289  and  _290
REMARK  117  A    between atoms: _300  and  _302
REMARK  118  A    between atoms: _302  and  _303
REMARK  119  A    between atoms: _302  and  _305
REMARK  120  A    between atoms: _305  and  _306
REMARK  121  A    between atoms: _306  and  _307
REMARK  122  A    between atoms: _311  and  _312
REMARK  123  A    between atoms: _317  and  _319
REMARK  124  A    between atoms: _319  and  _320
REMARK  125  A    between atoms: _319  and  _322
REMARK  126  A    between atoms: _322  and  _323
REMARK  127  A    between atoms: _326  and  _328
REMARK  128  A    between atoms: _328  and  _329
REMARK  129  A    between atoms: _328  and  _331
REMARK  130  A    between atoms: _331  and  _332
REMARK  131  A    between atoms: _332  and  _333
REMARK  132  A    between atoms: _333  and  _334
REMARK  133  A    between atoms: _343  and  _345
REMARK  134  A    between atoms: _345  and  _346
REMARK  135  A    between atoms: _345  and  _348
REMARK  136  A    between atoms: _348  and  _349
REMARK  137  A    between atoms: _352  and  _354
REMARK  138  A    between atoms: _354  and  _355
REMARK  139  A    between atoms: _358  and  _360
REMARK  140  A    between atoms: _360  and  _361
REMARK  141  A    between atoms: _360  and  _363
REMARK  142  A    between atoms: _363  and  _364
REMARK  143  A    between atoms: _369  and  _371
REMARK  144  A    between atoms: _371  and  _372
REMARK  145  A    between atoms: _375  and  _377
REMARK  146  A    between atoms: _377  and  _378
REMARK  147  A    between atoms: _377  and  _380
REMARK  148  A    between atoms: _380  and  _381
REMARK  149  A    between atoms: _386  and  _387
REMARK  150  A    between atoms: _389  and  _391
REMARK  151  A    between atoms: _391  and  _392
REMARK  152  A    between atoms: _391  and  _394
REMARK  153  A    between atoms: _394  and  _395
REMARK  154  A    between atoms: _397  and  _399
REMARK  155  A    between atoms: _399  and  _400
REMARK  156  A    between atoms: _399  and  _402
REMARK  157  A    between atoms: _402  and  _403
REMARK  158  A    between atoms: _409  and  _411
REMARK  159  A    between atoms: _411  and  _412
REMARK  160  A    between atoms: _411  and  _414
REMARK  161  A    between atoms: _414  and  _415
REMARK  162  A    between atoms: _421  and  _423
REMARK  163  A    between atoms: _423  and  _424
REMARK  164  A    between atoms: _423  and  _426
REMARK  165  A    between atoms: _426  and  _427
REMARK  166  A    between atoms: _432  and  _434
REMARK  167  A    between atoms: _434  and  _435
REMARK  168  A    between atoms: _437  and  _439
REMARK  169  A    between atoms: _439  and  _440
REMARK  170  A    between atoms: _439  and  _442
REMARK  171  A    between atoms: _445  and  _447
REMARK  172  A    between atoms: _447  and  _448
REMARK  173  A    between atoms: _447  and  _450
REMARK  174  A    between atoms: _450  and  _451
REMARK  175  A    between atoms: _461  and  _463
REMARK  176  A    between atoms: _463  and  _464
REMARK  177  A    between atoms: _467  and  _469
REMARK  178  A    between atoms: _469  and  _470
REMARK  179  A    between atoms: _469  and  _472
REMARK  180  A    between atoms: _472  and  _473
REMARK  181  A    between atoms: _473  and  _474
REMARK  182  A    between atoms: _477  and  _479
REMARK  183  A    between atoms: _479  and  _480
REMARK  184  A    between atoms: _479  and  _482
REMARK  185  A    between atoms: _482  and  _483
REMARK  186  A    between atoms: _485  and  _487
REMARK  187  A    between atoms: _487  and  _488
REMARK  188  A    between atoms: _490  and  _492
REMARK  189  A    between atoms: _492  and  _493
REMARK  190  A    between atoms: _495  and  _497
REMARK  191  A    between atoms: _497  and  _498
REMARK  192  A    between atoms: _497  and  _500
REMARK  193  A    between atoms: _500  and  _501
REMARK  194  A    between atoms: _504  and  _506
REMARK  195  A    between atoms: _506  and  _507
REMARK  196  A    between atoms: _506  and  _509
REMARK  197  A    between atoms: _512  and  _514
REMARK  198  A    between atoms: _514  and  _515
REMARK  199  A    between atoms: _517  and  _519
REMARK  200  A    between atoms: _519  and  _520
REMARK  201  A    between atoms: _523  and  _525
REMARK  202  A    between atoms: _525  and  _526
REMARK  203  A    between atoms: _525  and  _528
REMARK  204  A    between atoms: _528  and  _529
REMARK  205  A    between atoms: _535  and  _536
REMARK  206  A    between atoms: _541  and  _543
REMARK  207  A    between atoms: _543  and  _544
REMARK  208  A    between atoms: _543  and  _546
REMARK  209  A    between atoms: _546  and  _547
REMARK  210  A    between atoms: _550  and  _552
REMARK  211  A    between atoms: _552  and  _553
REMARK  212  A    between atoms: _552  and  _555
REMARK  213  A    between atoms: _555  and  _556
REMARK  214  A    between atoms: _558  and  _560
REMARK  215  A    between atoms: _560  and  _561
REMARK  216  A    between atoms: _560  and  _563
REMARK  217  A    between atoms: _563  and  _564
REMARK  218  A    between atoms: _567  and  _569
REMARK  219  A    between atoms: _569  and  _570
REMARK  220  A    between atoms: _569  and  _572
REMARK  221  A    between atoms: _572  and  _573
REMARK  222  A    between atoms: _578  and  _580
REMARK  223  A    between atoms: _580  and  _581
REMARK  224  A    between atoms: _580  and  _583
REMARK  225  A    between atoms: _583  and  _584
REMARK                            x       y       z     vdW  Elec       q    Type
REMARK                         _______ _______ _______ _____ _____    ______ ____
ROOT
ATOM      1  O   HOH     1      15.899   4.465  54.825  0.00  0.00    +0.000 OA
ENDROOT
TORSDOF 0
REMARK  Name = ../refined-set-2016/2w7y/2w7y_pocket.pdb
REMARK  225 active torsions:
REMARK  status: ('A' for Active; 'I' for Inactive)
REMARK    1  A    between atoms: _1  and  _3
REMARK    2  A    between atoms: _3  and  _4
REMARK    3  A    between atoms: _3  and  _6
REMARK    4  A    between atoms: _6  and  _7
REMARK    5  A    between atoms: _12  and  _13
REMARK    6  A    between atoms: _15  and  _17
REMARK    7  A    between atoms: _17  and  _18
REMARK    8  A    between atoms: _17  and  _20
REMARK    9  A    between atoms: _20  and  _21
REMARK   10  A    between atoms: _26  and  _28
REMARK   11  A    between atoms: _28  and  _29
REMARK   12  A    between atoms: _31  and  _33
REMARK   13  A    between atoms: _33  and  _34
REMARK   14  A    between atoms: _33  and  _36
REMARK   15  A    between atoms: _36  and  _37
REMARK   16  A    between atoms: _42  and  _43
REMARK   17  A    between atoms: _45  and  _47
REMARK   18  A    between atoms: _47  and  _48
REMARK   19  A    between atoms: _47  and  _50
REMARK   20  A    between atoms: _50  and  _51
REMARK   21  A    between atoms: _56  and  _58
REMARK   22  A    between atoms: _58  and  _59
REMARK   23  A    between atoms: _58  and  _61
REMARK   24  A    between atoms: _61  and  _62
REMARK   25  A    between atoms: _67  and  _69
REMARK   26  A    between atoms: _69  and  _70
REMARK   27  A    between atoms: _69  and  _72
REMARK   28  A    between atoms: _72  and  _73
REMARK   29  A    between atoms: _83  and  _85
REMARK   30  A    between atoms: _85  and  _86
REMARK   31  A    between atoms: _85  and  _88
REMARK   32  A    between atoms: _91  and  _93
REMARK   33  A    between atoms: _93  and  _94
REMARK   34  A    between atoms: _97  and  _99
REMARK   35  A    between atoms: _99  and  _100
REMARK   36  A    between atoms: _99  and  _102
REMARK   37  A    between atoms: _102  and  _103
REMARK   38  A    between atoms: _103  and  _104
REMARK   39  A    between atoms: _106  and  _108
REMARK   40  A    between atoms: _108  and  _109
REMARK   41  A    between atoms: _108  and  _111
REMARK   42  A    between atoms: _111  and  _112
REMARK   43  A    between atoms: _117  and  _118
REMARK   44  A    between atoms: _120  and  _122
REMARK   45  A    between atoms: _122  and  _123
REMARK   46  A    between atoms: _122  and  _125
REMARK   47  A    between atoms: _128  and  _130
REMARK   48  A    between atoms: _130  and  _131
REMARK   49  A    between atoms: _130  and  _133
REMARK   50  A    between atoms: _133  and  _134
REMARK   51  A    between atoms: _139  and  _141
REMARK   52  A    between atoms: _141  and  _142
REMARK   53  A    between atoms: _144  and  _146
REMARK   54  A    between atoms: _146  and  _147
REMARK   55  A    between atoms: _146  and  _149
REMARK   56  A    between atoms: _149  and  _150
REMARK   57  A    between atoms: _153  and  _155
REMARK   58  A    between atoms: _155  and  _156
REMARK   59  A    between atoms: _155  and  _158
REMARK   60  A    between atoms: _158  and  _159
REMARK   61  A    between atoms: _159  and  _160
REMARK   62  A    between atoms: _160  and  _161
REMARK   63  A    between atoms: _161  and  _162
REMARK   64  A    between atoms: _166  and  _168
REMARK   65  A    between atoms: _168  and  _169
REMARK   66  A    between atoms: _168  and  _171
REMARK   67  A    between atoms: _171  and  _172
REMARK   68  A    between atoms: _175  and  _177
REMARK   69  A    between atoms: _177  and  _178
REMARK   70  A    between atoms: _177  and  _180
REMARK   71  A    between atoms: _180  and  _181
REMARK   72  A    between atoms: _184  and  _186
REMARK   73  A    between atoms: _186  and  _187
REMARK   74  A    between atoms: _190  and  _192
REMARK   75  A    between atoms: _192  and  _193
REMARK   76  A    between atoms: _195  and  _197
REMARK   77  A    between atoms: _197  and  _198
REMARK   78  A    between atoms: _197  and  _200
REMARK   79  A    between atoms: _200  and  _201
REMARK   80  A    between atoms: _206  and  _208
REMARK   81  A    between atoms: _208  and  _209
REMARK   82  A    between atoms: _212  and  _214
REMARK   83  A    between atoms: _214  and  _215
REMARK   84  A    between atoms: _214  and  _217
REMARK   85  A    between atoms: _217  and  _218
REMARK   86  A    between atoms: _223  and  _225
REMARK   87  A    between atoms: _225  and  _226
REMARK   88  A    between atoms: _225  and  _228
REMARK   89  A    between atoms: _228  and  _229
REMARK   90  A    between atoms: _229  and  _230
REMARK   91  A    between atoms: _233  and  _235
REMARK   92  A    between atoms: _235  and  _236
REMARK   93  A    between atoms: _235  and  _238
REMARK   94  A    between atoms: _238  and  _239
REMARK   95  A    between atoms: _239  and  _240
REMARK   96  A    between atoms: _245  and  _247
REMARK   97  A    between atoms: _247  and  _248
REMARK   98  A    between atoms: _247  and  _250
REMARK   99  A    between atoms: _250  and  _251
REMARK  100  A    between atoms: _254  and  _256
REMARK  101  A    between atoms: _256  and  _257
REMARK  102  A    between atoms: _256  and  _259
REMARK  103  A    between atoms: _259  and  _260
REMARK  104  A    between atoms: _266  and  _268
REMARK  105  A    between atoms: _268  and  _269
REMARK  106  A    between atoms: _268  and  _271
REMARK  107  A    between atoms: _271  and  _272
REMARK  108  A    between atoms: _275  and  _277
REMARK  109  A    between atoms: _277  and  _278
REMARK  110  A    between atoms: _277  and  _280
REMARK  111  A    between atoms: _280  and  _281
REMARK  112  A    between atoms: _281  and  _282
REMARK  113  A    between atoms: _284  and  _286
REMARK  114  A    between atoms: _286  and  _287
REMARK  115  A    between atoms: _286  and  _289
REMARK  116  A    between atoms: _289  and  _290
REMARK  117  A    between atoms: _300  and  _302
REMARK  118  A    between atoms: _302  and  _303
REMARK  119  A    between atoms: _302  and  _305
REMARK  120  A    between atoms: _305  and  _306
REMARK  121  A    between atoms: _306  and  _307
REMARK  122  A    between atoms: _311  and  _312
REMARK  123  A    between atoms: _317  and  _319
REMARK  124  A    between atoms: _319  and  _320
REMARK  125  A    between atoms: _319  and  _322
REMARK  126  A    between atoms: _322  and  _323
REMARK  127  A    between atoms: _326  and  _328
REMARK  128  A    between atoms: _328  and  _329
REMARK  129  A    between atoms: _328  and  _331
REMARK  130  A    between atoms: _331  and  _332
REMARK  131  A    between atoms: _332  and  _333
REMARK  132  A    between atoms: _333  and  _334
REMARK  133  A    between atoms: _343  and  _345
REMARK  134  A    between atoms: _345  and  _346
REMARK  135  A    between atoms: _345  and  _348
REMARK  136  A    between atoms: _348  and  _349
REMARK  137  A    between atoms: _352  and  _354
REMARK  138  A    between atoms: _354  and  _355
REMARK  139  A    between atoms: _358  and  _360
REMARK  140  A    between atoms: _360  and  _361
REMARK  141  A    between atoms: _360  and  _363
REMARK  142  A    between atoms: _363  and  _364
REMARK  143  A    between atoms: _369  and  _371
REMARK  144  A    between atoms: _371  and  _372
REMARK  145  A    between atoms: _375  and  _377
REMARK  146  A    between atoms: _377  and  _378
REMARK  147  A    between atoms: _377  and  _380
REMARK  148  A    between atoms: _380  and  _381
REMARK  149  A    between atoms: _386  and  _387
REMARK  150  A    between atoms: _389  and  _391
REMARK  151  A    between atoms: _391  and  _392
REMARK  152  A    between atoms: _391  and  _394
REMARK  153  A    between atoms: _394  and  _395
REMARK  154  A    between atoms: _397  and  _399
REMARK  155  A    between atoms: _399  and  _400
REMARK  156  A    between atoms: _399  and  _402
REMARK  157  A    between atoms: _402  and  _403
REMARK  158  A    between atoms: _409  and  _411
REMARK  159  A    between atoms: _411  and  _412
REMARK  160  A    between atoms: _411  and  _414
REMARK  161  A    between atoms: _414  and  _415
REMARK  162  A    between atoms: _421  and  _423
REMARK  163  A    between atoms: _423  and  _424
REMARK  164  A    between atoms: _423  and  _426
REMARK  165  A    between atoms: _426  and  _427
REMARK  166  A    between atoms: _432  and  _434
REMARK  167  A    between atoms: _434  and  _435
REMARK  168  A    between atoms: _437  and  _439
REMARK  169  A    between atoms: _439  and  _440
REMARK  170  A    between atoms: _439  and  _442
REMARK  171  A    between atoms: _445  and  _447
REMARK  172  A    between atoms: _447  and  _448
REMARK  173  A    between atoms: _447  and  _450
REMARK  174  A    between atoms: _450  and  _451
REMARK  175  A    between atoms: _461  and  _463
REMARK  176  A    between atoms: _463  and  _464
REMARK  177  A    between atoms: _467  and  _469
REMARK  178  A    between atoms: _469  and  _470
REMARK  179  A    between atoms: _469  and  _472
REMARK  180  A    between atoms: _472  and  _473
REMARK  181  A    between atoms: _473  and  _474
REMARK  182  A    between atoms: _477  and  _479
REMARK  183  A    between atoms: _479  and  _480
REMARK  184  A    between atoms: _479  and  _482
REMARK  185  A    between atoms: _482  and  _483
REMARK  186  A    between atoms: _485  and  _487
REMARK  187  A    between atoms: _487  and  _488
REMARK  188  A    between atoms: _490  and  _492
REMARK  189  A    between atoms: _492  and  _493
REMARK  190  A    between atoms: _495  and  _497
REMARK  191  A    between atoms: _497  and  _498
REMARK  192  A    between atoms: _497  and  _500
REMARK  193  A    between atoms: _500  and  _501
REMARK  194  A    between atoms: _504  and  _506
REMARK  195  A    between atoms: _506  and  _507
REMARK  196  A    between atoms: _506  and  _509
REMARK  197  A    between atoms: _512  and  _514
REMARK  198  A    between atoms: _514  and  _515
REMARK  199  A    between atoms: _517  and  _519
REMARK  200  A    between atoms: _519  and  _520
REMARK  201  A    between atoms: _523  and  _525
REMARK  202  A    between atoms: _525  and  _526
REMARK  203  A    between atoms: _525  and  _528
REMARK  204  A    between atoms: _528  and  _529
REMARK  205  A    between atoms: _535  and  _536
REMARK  206  A    between atoms: _541  and  _543
REMARK  207  A    between atoms: _543  and  _544
REMARK  208  A    between atoms: _543  and  _546
REMARK  209  A    between atoms: _546  and  _547
REMARK  210  A    between atoms: _550  and  _552
REMARK  211  A    between atoms: _552  and  _553
REMARK  212  A    between atoms: _552  and  _555
REMARK  213  A    between atoms: _555  and  _556
REMARK  214  A    between atoms: _558  and  _560
REMARK  215  A    between atoms: _560  and  _561
REMARK  216  A    between atoms: _560  and  _563
REMARK  217  A    between atoms: _563  and  _564
REMARK  218  A    between atoms: _567  and  _569
REMARK  219  A    between atoms: _569  and  _570
REMARK  220  A    between atoms: _569  and  _572
REMARK  221  A    between atoms: _572  and  _573
REMARK  222  A    between atoms: _578  and  _580
REMARK  223  A    between atoms: _580  and  _581
REMARK  224  A    between atoms: _580  and  _583
REMARK  225  A    between atoms: _583  and  _584
REMARK                            x       y       z     vdW  Elec       q    Type
REMARK                         _______ _______ _______ _____ _____    ______ ____
ROOT
ATOM      1  O   HOH     1      14.712   8.820  51.423  0.00  0.00    +0.000 OA
ENDROOT
TORSDOF 0
REMARK  Name = ../refined-set-2016/2w7y/2w7y_pocket.pdb
REMARK  225 active torsions:
REMARK  status: ('A' for Active; 'I' for Inactive)
REMARK    1  A    between atoms: _1  and  _3
REMARK    2  A    between atoms: _3  and  _4
REMARK    3  A    between atoms: _3  and  _6
REMARK    4  A    between atoms: _6  and  _7
REMARK    5  A    between atoms: _12  and  _13
REMARK    6  A    between atoms: _15  and  _17
REMARK    7  A    between atoms: _17  and  _18
REMARK    8  A    between atoms: _17  and  _20
REMARK    9  A    between atoms: _20  and  _21
REMARK   10  A    between atoms: _26  and  _28
REMARK   11  A    between atoms: _28  and  _29
REMARK   12  A    between atoms: _31  and  _33
REMARK   13  A    between atoms: _33  and  _34
REMARK   14  A    between atoms: _33  and  _36
REMARK   15  A    between atoms: _36  and  _37
REMARK   16  A    between atoms: _42  and  _43
REMARK   17  A    between atoms: _45  and  _47
REMARK   18  A    between atoms: _47  and  _48
REMARK   19  A    between atoms: _47  and  _50
REMARK   20  A    between atoms: _50  and  _51
REMARK   21  A    between atoms: _56  and  _58
REMARK   22  A    between atoms: _58  and  _59
REMARK   23  A    between atoms: _58  and  _61
REMARK   24  A    between atoms: _61  and  _62
REMARK   25  A    between atoms: _67  and  _69
REMARK   26  A    between atoms: _69  and  _70
REMARK   27  A    between atoms: _69  and  _72
REMARK   28  A    between atoms: _72  and  _73
REMARK   29  A    between atoms: _83  and  _85
REMARK   30  A    between atoms: _85  and  _86
REMARK   31  A    between atoms: _85  and  _88
REMARK   32  A    between atoms: _91  and  _93
REMARK   33  A    between atoms: _93  and  _94
REMARK   34  A    between atoms: _97  and  _99
REMARK   35  A    between atoms: _99  and  _100
REMARK   36  A    between atoms: _99  and  _102
REMARK   37  A    between atoms: _102  and  _103
REMARK   38  A    between atoms: _103  and  _104
REMARK   39  A    between atoms: _106  and  _108
REMARK   40  A    between atoms: _108  and  _109
REMARK   41  A    between atoms: _108  and  _111
REMARK   42  A    between atoms: _111  and  _112
REMARK   43  A    between atoms: _117  and  _118
REMARK   44  A    between atoms: _120  and  _122
REMARK   45  A    between atoms: _122  and  _123
REMARK   46  A    between atoms: _122  and  _125
REMARK   47  A    between atoms: _128  and  _130
REMARK   48  A    between atoms: _130  and  _131
REMARK   49  A    between atoms: _130  and  _133
REMARK   50  A    between atoms: _133  and  _134
REMARK   51  A    between atoms: _139  and  _141
REMARK   52  A    between atoms: _141  and  _142
REMARK   53  A    between atoms: _144  and  _146
REMARK   54  A    between atoms: _146  and  _147
REMARK   55  A    between atoms: _146  and  _149
REMARK   56  A    between atoms: _149  and  _150
REMARK   57  A    between atoms: _153  and  _155
REMARK   58  A    between atoms: _155  and  _156
REMARK   59  A    between atoms: _155  and  _158
REMARK   60  A    between atoms: _158  and  _159
REMARK   61  A    between atoms: _159  and  _160
REMARK   62  A    between atoms: _160  and  _161
REMARK   63  A    between atoms: _161  and  _162
REMARK   64  A    between atoms: _166  and  _168
REMARK   65  A    between atoms: _168  and  _169
REMARK   66  A    between atoms: _168  and  _171
REMARK   67  A    between atoms: _171  and  _172
REMARK   68  A    between atoms: _175  and  _177
REMARK   69  A    between atoms: _177  and  _178
REMARK   70  A    between atoms: _177  and  _180
REMARK   71  A    between atoms: _180  and  _181
REMARK   72  A    between atoms: _184  and  _186
REMARK   73  A    between atoms: _186  and  _187
REMARK   74  A    between atoms: _190  and  _192
REMARK   75  A    between atoms: _192  and  _193
REMARK   76  A    between atoms: _195  and  _197
REMARK   77  A    between atoms: _197  and  _198
REMARK   78  A    between atoms: _197  and  _200
REMARK   79  A    between atoms: _200  and  _201
REMARK   80  A    between atoms: _206  and  _208
REMARK   81  A    between atoms: _208  and  _209
REMARK   82  A    between atoms: _212  and  _214
REMARK   83  A    between atoms: _214  and  _215
REMARK   84  A    between atoms: _214  and  _217
REMARK   85  A    between atoms: _217  and  _218
REMARK   86  A    between atoms: _223  and  _225
REMARK   87  A    between atoms: _225  and  _226
REMARK   88  A    between atoms: _225  and  _228
REMARK   89  A    between atoms: _228  and  _229
REMARK   90  A    between atoms: _229  and  _230
REMARK   91  A    between atoms: _233  and  _235
REMARK   92  A    between atoms: _235  and  _236
REMARK   93  A    between atoms: _235  and  _238
REMARK   94  A    between atoms: _238  and  _239
REMARK   95  A    between atoms: _239  and  _240
REMARK   96  A    between atoms: _245  and  _247
REMARK   97  A    between atoms: _247  and  _248
REMARK   98  A    between atoms: _247  and  _250
REMARK   99  A    between atoms: _250  and  _251
REMARK  100  A    between atoms: _254  and  _256
REMARK  101  A    between atoms: _256  and  _257
REMARK  102  A    between atoms: _256  and  _259
REMARK  103  A    between atoms: _259  and  _260
REMARK  104  A    between atoms: _266  and  _268
REMARK  105  A    between atoms: _268  and  _269
REMARK  106  A    between atoms: _268  and  _271
REMARK  107  A    between atoms: _271  and  _272
REMARK  108  A    between atoms: _275  and  _277
REMARK  109  A    between atoms: _277  and  _278
REMARK  110  A    between atoms: _277  and  _280
REMARK  111  A    between atoms: _280  and  _281
REMARK  112  A    between atoms: _281  and  _282
REMARK  113  A    between atoms: _284  and  _286
REMARK  114  A    between atoms: _286  and  _287
REMARK  115  A    between atoms: _286  and  _289
REMARK  116  A    between atoms: _289  and  _290
REMARK  117  A    between atoms: _300  and  _302
REMARK  118  A    between atoms: _302  and  _303
REMARK  119  A    between atoms: _302  and  _305
REMARK  120  A    between atoms: _305  and  _306
REMARK  121  A    between atoms: _306  and  _307
REMARK  122  A    between atoms: _311  and  _312
REMARK  123  A    between atoms: _317  and  _319
REMARK  124  A    between atoms: _319  and  _320
REMARK  125  A    between atoms: _319  and  _322
REMARK  126  A    between atoms: _322  and  _323
REMARK  127  A    between atoms: _326  and  _328
REMARK  128  A    between atoms: _328  and  _329
REMARK  129  A    between atoms: _328  and  _331
REMARK  130  A    between atoms: _331  and  _332
REMARK  131  A    between atoms: _332  and  _333
REMARK  132  A    between atoms: _333  and  _334
REMARK  133  A    between atoms: _343  and  _345
REMARK  134  A    between atoms: _345  and  _346
REMARK  135  A    between atoms: _345  and  _348
REMARK  136  A    between atoms: _348  and  _349
REMARK  137  A    between atoms: _352  and  _354
REMARK  138  A    between atoms: _354  and  _355
REMARK  139  A    between atoms: _358  and  _360
REMARK  140  A    between atoms: _360  and  _361
REMARK  141  A    between atoms: _360  and  _363
REMARK  142  A    between atoms: _363  and  _364
REMARK  143  A    between atoms: _369  and  _371
REMARK  144  A    between atoms: _371  and  _372
REMARK  145  A    between atoms: _375  and  _377
REMARK  146  A    between atoms: _377  and  _378
REMARK  147  A    between atoms: _377  and  _380
REMARK  148  A    between atoms: _380  and  _381
REMARK  149  A    between atoms: _386  and  _387
REMARK  150  A    between atoms: _389  and  _391
REMARK  151  A    between atoms: _391  and  _392
REMARK  152  A    between atoms: _391  and  _394
REMARK  153  A    between atoms: _394  and  _395
REMARK  154  A    between atoms: _397  and  _399
REMARK  155  A    between atoms: _399  and  _400
REMARK  156  A    between atoms: _399  and  _402
REMARK  157  A    between atoms: _402  and  _403
REMARK  158  A    between atoms: _409  and  _411
REMARK  159  A    between atoms: _411  and  _412
REMARK  160  A    between atoms: _411  and  _414
REMARK  161  A    between atoms: _414  and  _415
REMARK  162  A    between atoms: _421  and  _423
REMARK  163  A    between atoms: _423  and  _424
REMARK  164  A    between atoms: _423  and  _426
REMARK  165  A    between atoms: _426  and  _427
REMARK  166  A    between atoms: _432  and  _434
REMARK  167  A    between atoms: _434  and  _435
REMARK  168  A    between atoms: _437  and  _439
REMARK  169  A    between atoms: _439  and  _440
REMARK  170  A    between atoms: _439  and  _442
REMARK  171  A    between atoms: _445  and  _447
REMARK  172  A    between atoms: _447  and  _448
REMARK  173  A    between atoms: _447  and  _450
REMARK  174  A    between atoms: _450  and  _451
REMARK  175  A    between atoms: _461  and  _463
REMARK  176  A    between atoms: _463  and  _464
REMARK  177  A    between atoms: _467  and  _469
REMARK  178  A    between atoms: _469  and  _470
REMARK  179  A    between atoms: _469  and  _472
REMARK  180  A    between atoms: _472  and  _473
REMARK  181  A    between atoms: _473  and  _474
REMARK  182  A    between atoms: _477  and  _479
REMARK  183  A    between atoms: _479  and  _480
REMARK  184  A    between atoms: _479  and  _482
REMARK  185  A    between atoms: _482  and  _483
REMARK  186  A    between atoms: _485  and  _487
REMARK  187  A    between atoms: _487  and  _488
REMARK  188  A    between atoms: _490  and  _492
REMARK  189  A    between atoms: _492  and  _493
REMARK  190  A    between atoms: _495  and  _497
REMARK  191  A    between atoms: _497  and  _498
REMARK  192  A    between atoms: _497  and  _500
REMARK  193  A    between atoms: _500  and  _501
REMARK  194  A    between atoms: _504  and  _506
REMARK  195  A    between atoms: _506  and  _507
REMARK  196  A    between atoms: _506  and  _509
REMARK  197  A    between atoms: _512  and  _514
REMARK  198  A    between atoms: _514  and  _515
REMARK  199  A    between atoms: _517  and  _519
REMARK  200  A    between atoms: _519  and  _520
REMARK  201  A    between atoms: _523  and  _525
REMARK  202  A    between atoms: _525  and  _526
REMARK  203  A    between atoms: _525  and  _528
REMARK  204  A    between atoms: _528  and  _529
REMARK  205  A    between atoms: _535  and  _536
REMARK  206  A    between atoms: _541  and  _543
REMARK  207  A    between atoms: _543  and  _544
REMARK  208  A    between atoms: _543  and  _546
REMARK  209  A    between atoms: _546  and  _547
REMARK  210  A    between atoms: _550  and  _552
REMARK  211  A    between atoms: _552  and  _553
REMARK  212  A    between atoms: _552  and  _555
REMARK  213  A    between atoms: _555  and  _556
REMARK  214  A    between atoms: _558  and  _560
REMARK  215  A    between atoms: _560  and  _561
REMARK  216  A    between atoms: _560  and  _563
REMARK  217  A    between atoms: _563  and  _564
REMARK  218  A    between atoms: _567  and  _569
REMARK  219  A    between atoms: _569  and  _570
REMARK  220  A    between atoms: _569  and  _572
REMARK  221  A    between atoms: _572  and  _573
REMARK  222  A    between atoms: _578  and  _580
REMARK  223  A    between atoms: _580  and  _581
REMARK  224  A    between atoms: _580  and  _583
REMARK  225  A    between atoms: _583  and  _584
REMARK                            x       y       z     vdW  Elec       q    Type
REMARK                         _______ _______ _______ _____ _____    ______ ____
ROOT
ATOM      1  O   HOH     1      16.285   9.334  45.808  0.00  0.00    +0.000 OA
ENDROOT
TORSDOF 0
REMARK  Name = ../refined-set-2016/2w7y/2w7y_pocket.pdb
REMARK  225 active torsions:
REMARK  status: ('A' for Active; 'I' for Inactive)
REMARK    1  A    between atoms: _1  and  _3
REMARK    2  A    between atoms: _3  and  _4
REMARK    3  A    between atoms: _3  and  _6
REMARK    4  A    between atoms: _6  and  _7
REMARK    5  A    between atoms: _12  and  _13
REMARK    6  A    between atoms: _15  and  _17
REMARK    7  A    between atoms: _17  and  _18
REMARK    8  A    between atoms: _17  and  _20
REMARK    9  A    between atoms: _20  and  _21
REMARK   10  A    between atoms: _26  and  _28
REMARK   11  A    between atoms: _28  and  _29
REMARK   12  A    between atoms: _31  and  _33
REMARK   13  A    between atoms: _33  and  _34
REMARK   14  A    between atoms: _33  and  _36
REMARK   15  A    between atoms: _36  and  _37
REMARK   16  A    between atoms: _42  and  _43
REMARK   17  A    between atoms: _45  and  _47
REMARK   18  A    between atoms: _47  and  _48
REMARK   19  A    between atoms: _47  and  _50
REMARK   20  A    between atoms: _50  and  _51
REMARK   21  A    between atoms: _56  and  _58
REMARK   22  A    between atoms: _58  and  _59
REMARK   23  A    between atoms: _58  and  _61
REMARK   24  A    between atoms: _61  and  _62
REMARK   25  A    between atoms: _67  and  _69
REMARK   26  A    between atoms: _69  and  _70
REMARK   27  A    between atoms: _69  and  _72
REMARK   28  A    between atoms: _72  and  _73
REMARK   29  A    between atoms: _83  and  _85
REMARK   30  A    between atoms: _85  and  _86
REMARK   31  A    between atoms: _85  and  _88
REMARK   32  A    between atoms: _91  and  _93
REMARK   33  A    between atoms: _93  and  _94
REMARK   34  A    between atoms: _97  and  _99
REMARK   35  A    between atoms: _99  and  _100
REMARK   36  A    between atoms: _99  and  _102
REMARK   37  A    between atoms: _102  and  _103
REMARK   38  A    between atoms: _103  and  _104
REMARK   39  A    between atoms: _106  and  _108
REMARK   40  A    between atoms: _108  and  _109
REMARK   41  A    between atoms: _108  and  _111
REMARK   42  A    between atoms: _111  and  _112
REMARK   43  A    between atoms: _117  and  _118
REMARK   44  A    between atoms: _120  and  _122
REMARK   45  A    between atoms: _122  and  _123
REMARK   46  A    between atoms: _122  and  _125
REMARK   47  A    between atoms: _128  and  _130
REMARK   48  A    between atoms: _130  and  _131
REMARK   49  A    between atoms: _130  and  _133
REMARK   50  A    between atoms: _133  and  _134
REMARK   51  A    between atoms: _139  and  _141
REMARK   52  A    between atoms: _141  and  _142
REMARK   53  A    between atoms: _144  and  _146
REMARK   54  A    between atoms: _146  and  _147
REMARK   55  A    between atoms: _146  and  _149
REMARK   56  A    between atoms: _149  and  _150
REMARK   57  A    between atoms: _153  and  _155
REMARK   58  A    between atoms: _155  and  _156
REMARK   59  A    between atoms: _155  and  _158
REMARK   60  A    between atoms: _158  and  _159
REMARK   61  A    between atoms: _159  and  _160
REMARK   62  A    between atoms: _160  and  _161
REMARK   63  A    between atoms: _161  and  _162
REMARK   64  A    between atoms: _166  and  _168
REMARK   65  A    between atoms: _168  and  _169
REMARK   66  A    between atoms: _168  and  _171
REMARK   67  A    between atoms: _171  and  _172
REMARK   68  A    between atoms: _175  and  _177
REMARK   69  A    between atoms: _177  and  _178
REMARK   70  A    between atoms: _177  and  _180
REMARK   71  A    between atoms: _180  and  _181
REMARK   72  A    between atoms: _184  and  _186
REMARK   73  A    between atoms: _186  and  _187
REMARK   74  A    between atoms: _190  and  _192
REMARK   75  A    between atoms: _192  and  _193
REMARK   76  A    between atoms: _195  and  _197
REMARK   77  A    between atoms: _197  and  _198
REMARK   78  A    between atoms: _197  and  _200
REMARK   79  A    between atoms: _200  and  _201
REMARK   80  A    between atoms: _206  and  _208
REMARK   81  A    between atoms: _208  and  _209
REMARK   82  A    between atoms: _212  and  _214
REMARK   83  A    between atoms: _214  and  _215
REMARK   84  A    between atoms: _214  and  _217
REMARK   85  A    between atoms: _217  and  _218
REMARK   86  A    between atoms: _223  and  _225
REMARK   87  A    between atoms: _225  and  _226
REMARK   88  A    between atoms: _225  and  _228
REMARK   89  A    between atoms: _228  and  _229
REMARK   90  A    between atoms: _229  and  _230
REMARK   91  A    between atoms: _233  and  _235
REMARK   92  A    between atoms: _235  and  _236
REMARK   93  A    between atoms: _235  and  _238
REMARK   94  A    between atoms: _238  and  _239
REMARK   95  A    between atoms: _239  and  _240
REMARK   96  A    between atoms: _245  and  _247
REMARK   97  A    between atoms: _247  and  _248
REMARK   98  A    between atoms: _247  and  _250
REMARK   99  A    between atoms: _250  and  _251
REMARK  100  A    between atoms: _254  and  _256
REMARK  101  A    between atoms: _256  and  _257
REMARK  102  A    between atoms: _256  and  _259
REMARK  103  A    between atoms: _259  and  _260
REMARK  104  A    between atoms: _266  and  _268
REMARK  105  A    between atoms: _268  and  _269
REMARK  106  A    between atoms: _268  and  _271
REMARK  107  A    between atoms: _271  and  _272
REMARK  108  A    between atoms: _275  and  _277
REMARK  109  A    between atoms: _277  and  _278
REMARK  110  A    between atoms: _277  and  _280
REMARK  111  A    between atoms: _280  and  _281
REMARK  112  A    between atoms: _281  and  _282
REMARK  113  A    between atoms: _284  and  _286
REMARK  114  A    between atoms: _286  and  _287
REMARK  115  A    between atoms: _286  and  _289
REMARK  116  A    between atoms: _289  and  _290
REMARK  117  A    between atoms: _300  and  _302
REMARK  118  A    between atoms: _302  and  _303
REMARK  119  A    between atoms: _302  and  _305
REMARK  120  A    between atoms: _305  and  _306
REMARK  121  A    between atoms: _306  and  _307
REMARK  122  A    between atoms: _311  and  _312
REMARK  123  A    between atoms: _317  and  _319
REMARK  124  A    between atoms: _319  and  _320
REMARK  125  A    between atoms: _319  and  _322
REMARK  126  A    between atoms: _322  and  _323
REMARK  127  A    between atoms: _326  and  _328
REMARK  128  A    between atoms: _328  and  _329
REMARK  129  A    between atoms: _328  and  _331
REMARK  130  A    between atoms: _331  and  _332
REMARK  131  A    between atoms: _332  and  _333
REMARK  132  A    between atoms: _333  and  _334
REMARK  133  A    between atoms: _343  and  _345
REMARK  134  A    between atoms: _345  and  _346
REMARK  135  A    between atoms: _345  and  _348
REMARK  136  A    between atoms: _348  and  _349
REMARK  137  A    between atoms: _352  and  _354
REMARK  138  A    between atoms: _354  and  _355
REMARK  139  A    between atoms: _358  and  _360
REMARK  140  A    between atoms: _360  and  _361
REMARK  141  A    between atoms: _360  and  _363
REMARK  142  A    between atoms: _363  and  _364
REMARK  143  A    between atoms: _369  and  _371
REMARK  144  A    between atoms: _371  and  _372
REMARK  145  A    between atoms: _375  and  _377
REMARK  146  A    between atoms: _377  and  _378
REMARK  147  A    between atoms: _377  and  _380
REMARK  148  A    between atoms: _380  and  _381
REMARK  149  A    between atoms: _386  and  _387
REMARK  150  A    between atoms: _389  and  _391
REMARK  151  A    between atoms: _391  and  _392
REMARK  152  A    between atoms: _391  and  _394
REMARK  153  A    between atoms: _394  and  _395
REMARK  154  A    between atoms: _397  and  _399
REMARK  155  A    between atoms: _399  and  _400
REMARK  156  A    between atoms: _399  and  _402
REMARK  157  A    between atoms: _402  and  _403
REMARK  158  A    between atoms: _409  and  _411
REMARK  159  A    between atoms: _411  and  _412
REMARK  160  A    between atoms: _411  and  _414
REMARK  161  A    between atoms: _414  and  _415
REMARK  162  A    between atoms: _421  and  _423
REMARK  163  A    between atoms: _423  and  _424
REMARK  164  A    between atoms: _423  and  _426
REMARK  165  A    between atoms: _426  and  _427
REMARK  166  A    between atoms: _432  and  _434
REMARK  167  A    between atoms: _434  and  _435
REMARK  168  A    between atoms: _437  and  _439
REMARK  169  A    between atoms: _439  and  _440
REMARK  170  A    between atoms: _439  and  _442
REMARK  171  A    between atoms: _445  and  _447
REMARK  172  A    between atoms: _447  and  _448
REMARK  173  A    between atoms: _447  and  _450
REMARK  174  A    between atoms: _450  and  _451
REMARK  175  A    between atoms: _461  and  _463
REMARK  176  A    between atoms: _463  and  _464
REMARK  177  A    between atoms: _467  and  _469
REMARK  178  A    between atoms: _469  and  _470
REMARK  179  A    between atoms: _469  and  _472
REMARK  180  A    between atoms: _472  and  _473
REMARK  181  A    between atoms: _473  and  _474
REMARK  182  A    between atoms: _477  and  _479
REMARK  183  A    between atoms: _479  and  _480
REMARK  184  A    between atoms: _479  and  _482
REMARK  185  A    between atoms: _482  and  _483
REMARK  186  A    between atoms: _485  and  _487
REMARK  187  A    between atoms: _487  and  _488
REMARK  188  A    between atoms: _490  and  _492
REMARK  189  A    between atoms: _492  and  _493
REMARK  190  A    between atoms: _495  and  _497
REMARK  191  A    between atoms: _497  and  _498
REMARK  192  A    between atoms: _497  and  _500
REMARK  193  A    between atoms: _500  and  _501
REMARK  194  A    between atoms: _504  and  _506
REMARK  195  A    between atoms: _506  and  _507
REMARK  196  A    between atoms: _506  and  _509
REMARK  197  A    between atoms: _512  and  _514
REMARK  198  A    between atoms: _514  and  _515
REMARK  199  A    between atoms: _517  and  _519
REMARK  200  A    between atoms: _519  and  _520
REMARK  201  A    between atoms: _523  and  _525
REMARK  202  A    between atoms: _525  and  _526
REMARK  203  A    between atoms: _525  and  _528
REMARK  204  A    between atoms: _528  and  _529
REMARK  205  A    between atoms: _535  and  _536
REMARK  206  A    between atoms: _541  and  _543
REMARK  207  A    between atoms: _543  and  _544
REMARK  208  A    between atoms: _543  and  _546
REMARK  209  A    between atoms: _546  and  _547
REMARK  210  A    between atoms: _550  and  _552
REMARK  211  A    between atoms: _552  and  _553
REMARK  212  A    between atoms: _552  and  _555
REMARK  213  A    between atoms: _555  and  _556
REMARK  214  A    between atoms: _558  and  _560
REMARK  215  A    between atoms: _560  and  _561
REMARK  216  A    between atoms: _560  and  _563
REMARK  217  A    between atoms: _563  and  _564
REMARK  218  A    between atoms: _567  and  _569
REMARK  219  A    between atoms: _569  and  _570
REMARK  220  A    between atoms: _569  and  _572
REMARK  221  A    between atoms: _572  and  _573
REMARK  222  A    between atoms: _578  and  _580
REMARK  223  A    between atoms: _580  and  _581
REMARK  224  A    between atoms: _580  and  _583
REMARK  225  A    between atoms: _583  and  _584
REMARK                            x       y       z     vdW  Elec       q    Type
REMARK                         _______ _______ _______ _____ _____    ______ ____
ROOT
ATOM      1  O   HOH     1       9.351   6.058  51.765  0.00  0.00    +0.000 OA
ENDROOT
TORSDOF 0
REMARK  Name = ../refined-set-2016/2w7y/2w7y_pocket.pdb
REMARK  225 active torsions:
REMARK  status: ('A' for Active; 'I' for Inactive)
REMARK    1  A    between atoms: _1  and  _3
REMARK    2  A    between atoms: _3  and  _4
REMARK    3  A    between atoms: _3  and  _6
REMARK    4  A    between atoms: _6  and  _7
REMARK    5  A    between atoms: _12  and  _13
REMARK    6  A    between atoms: _15  and  _17
REMARK    7  A    between atoms: _17  and  _18
REMARK    8  A    between atoms: _17  and  _20
REMARK    9  A    between atoms: _20  and  _21
REMARK   10  A    between atoms: _26  and  _28
REMARK   11  A    between atoms: _28  and  _29
REMARK   12  A    between atoms: _31  and  _33
REMARK   13  A    between atoms: _33  and  _34
REMARK   14  A    between atoms: _33  and  _36
REMARK   15  A    between atoms: _36  and  _37
REMARK   16  A    between atoms: _42  and  _43
REMARK   17  A    between atoms: _45  and  _47
REMARK   18  A    between atoms: _47  and  _48
REMARK   19  A    between atoms: _47  and  _50
REMARK   20  A    between atoms: _50  and  _51
REMARK   21  A    between atoms: _56  and  _58
REMARK   22  A    between atoms: _58  and  _59
REMARK   23  A    between atoms: _58  and  _61
REMARK   24  A    between atoms: _61  and  _62
REMARK   25  A    between atoms: _67  and  _69
REMARK   26  A    between atoms: _69  and  _70
REMARK   27  A    between atoms: _69  and  _72
REMARK   28  A    between atoms: _72  and  _73
REMARK   29  A    between atoms: _83  and  _85
REMARK   30  A    between atoms: _85  and  _86
REMARK   31  A    between atoms: _85  and  _88
REMARK   32  A    between atoms: _91  and  _93
REMARK   33  A    between atoms: _93  and  _94
REMARK   34  A    between atoms: _97  and  _99
REMARK   35  A    between atoms: _99  and  _100
REMARK   36  A    between atoms: _99  and  _102
REMARK   37  A    between atoms: _102  and  _103
REMARK   38  A    between atoms: _103  and  _104
REMARK   39  A    between atoms: _106  and  _108
REMARK   40  A    between atoms: _108  and  _109
REMARK   41  A    between atoms: _108  and  _111
REMARK   42  A    between atoms: _111  and  _112
REMARK   43  A    between atoms: _117  and  _118
REMARK   44  A    between atoms: _120  and  _122
REMARK   45  A    between atoms: _122  and  _123
REMARK   46  A    between atoms: _122  and  _125
REMARK   47  A    between atoms: _128  and  _130
REMARK   48  A    between atoms: _130  and  _131
REMARK   49  A    between atoms: _130  and  _133
REMARK   50  A    between atoms: _133  and  _134
REMARK   51  A    between atoms: _139  and  _141
REMARK   52  A    between atoms: _141  and  _142
REMARK   53  A    between atoms: _144  and  _146
REMARK   54  A    between atoms: _146  and  _147
REMARK   55  A    between atoms: _146  and  _149
REMARK   56  A    between atoms: _149  and  _150
REMARK   57  A    between atoms: _153  and  _155
REMARK   58  A    between atoms: _155  and  _156
REMARK   59  A    between atoms: _155  and  _158
REMARK   60  A    between atoms: _158  and  _159
REMARK   61  A    between atoms: _159  and  _160
REMARK   62  A    between atoms: _160  and  _161
REMARK   63  A    between atoms: _161  and  _162
REMARK   64  A    between atoms: _166  and  _168
REMARK   65  A    between atoms: _168  and  _169
REMARK   66  A    between atoms: _168  and  _171
REMARK   67  A    between atoms: _171  and  _172
REMARK   68  A    between atoms: _175  and  _177
REMARK   69  A    between atoms: _177  and  _178
REMARK   70  A    between atoms: _177  and  _180
REMARK   71  A    between atoms: _180  and  _181
REMARK   72  A    between atoms: _184  and  _186
REMARK   73  A    between atoms: _186  and  _187
REMARK   74  A    between atoms: _190  and  _192
REMARK   75  A    between atoms: _192  and  _193
REMARK   76  A    between atoms: _195  and  _197
REMARK   77  A    between atoms: _197  and  _198
REMARK   78  A    between atoms: _197  and  _200
REMARK   79  A    between atoms: _200  and  _201
REMARK   80  A    between atoms: _206  and  _208
REMARK   81  A    between atoms: _208  and  _209
REMARK   82  A    between atoms: _212  and  _214
REMARK   83  A    between atoms: _214  and  _215
REMARK   84  A    between atoms: _214  and  _217
REMARK   85  A    between atoms: _217  and  _218
REMARK   86  A    between atoms: _223  and  _225
REMARK   87  A    between atoms: _225  and  _226
REMARK   88  A    between atoms: _225  and  _228
REMARK   89  A    between atoms: _228  and  _229
REMARK   90  A    between atoms: _229  and  _230
REMARK   91  A    between atoms: _233  and  _235
REMARK   92  A    between atoms: _235  and  _236
REMARK   93  A    between atoms: _235  and  _238
REMARK   94  A    between atoms: _238  and  _239
REMARK   95  A    between atoms: _239  and  _240
REMARK   96  A    between atoms: _245  and  _247
REMARK   97  A    between atoms: _247  and  _248
REMARK   98  A    between atoms: _247  and  _250
REMARK   99  A    between atoms: _250  and  _251
REMARK  100  A    between atoms: _254  and  _256
REMARK  101  A    between atoms: _256  and  _257
REMARK  102  A    between atoms: _256  and  _259
REMARK  103  A    between atoms: _259  and  _260
REMARK  104  A    between atoms: _266  and  _268
REMARK  105  A    between atoms: _268  and  _269
REMARK  106  A    between atoms: _268  and  _271
REMARK  107  A    between atoms: _271  and  _272
REMARK  108  A    between atoms: _275  and  _277
REMARK  109  A    between atoms: _277  and  _278
REMARK  110  A    between atoms: _277  and  _280
REMARK  111  A    between atoms: _280  and  _281
REMARK  112  A    between atoms: _281  and  _282
REMARK  113  A    between atoms: _284  and  _286
REMARK  114  A    between atoms: _286  and  _287
REMARK  115  A    between atoms: _286  and  _289
REMARK  116  A    between atoms: _289  and  _290
REMARK  117  A    between atoms: _300  and  _302
REMARK  118  A    between atoms: _302  and  _303
REMARK  119  A    between atoms: _302  and  _305
REMARK  120  A    between atoms: _305  and  _306
REMARK  121  A    between atoms: _306  and  _307
REMARK  122  A    between atoms: _311  and  _312
REMARK  123  A    between atoms: _317  and  _319
REMARK  124  A    between atoms: _319  and  _320
REMARK  125  A    between atoms: _319  and  _322
REMARK  126  A    between atoms: _322  and  _323
REMARK  127  A    between atoms: _326  and  _328
REMARK  128  A    between atoms: _328  and  _329
REMARK  129  A    between atoms: _328  and  _331
REMARK  130  A    between atoms: _331  and  _332
REMARK  131  A    between atoms: _332  and  _333
REMARK  132  A    between atoms: _333  and  _334
REMARK  133  A    between atoms: _343  and  _345
REMARK  134  A    between atoms: _345  and  _346
REMARK  135  A    between atoms: _345  and  _348
REMARK  136  A    between atoms: _348  and  _349
REMARK  137  A    between atoms: _352  and  _354
REMARK  138  A    between atoms: _354  and  _355
REMARK  139  A    between atoms: _358  and  _360
REMARK  140  A    between atoms: _360  and  _361
REMARK  141  A    between atoms: _360  and  _363
REMARK  142  A    between atoms: _363  and  _364
REMARK  143  A    between atoms: _369  and  _371
REMARK  144  A    between atoms: _371  and  _372
REMARK  145  A    between atoms: _375  and  _377
REMARK  146  A    between atoms: _377  and  _378
REMARK  147  A    between atoms: _377  and  _380
REMARK  148  A    between atoms: _380  and  _381
REMARK  149  A    between atoms: _386  and  _387
REMARK  150  A    between atoms: _389  and  _391
REMARK  151  A    between atoms: _391  and  _392
REMARK  152  A    between atoms: _391  and  _394
REMARK  153  A    between atoms: _394  and  _395
REMARK  154  A    between atoms: _397  and  _399
REMARK  155  A    between atoms: _399  and  _400
REMARK  156  A    between atoms: _399  and  _402
REMARK  157  A    between atoms: _402  and  _403
REMARK  158  A    between atoms: _409  and  _411
REMARK  159  A    between atoms: _411  and  _412
REMARK  160  A    between atoms: _411  and  _414
REMARK  161  A    between atoms: _414  and  _415
REMARK  162  A    between atoms: _421  and  _423
REMARK  163  A    between atoms: _423  and  _424
REMARK  164  A    between atoms: _423  and  _426
REMARK  165  A    between atoms: _426  and  _427
REMARK  166  A    between atoms: _432  and  _434
REMARK  167  A    between atoms: _434  and  _435
REMARK  168  A    between atoms: _437  and  _439
REMARK  169  A    between atoms: _439  and  _440
REMARK  170  A    between atoms: _439  and  _442
REMARK  171  A    between atoms: _445  and  _447
REMARK  172  A    between atoms: _447  and  _448
REMARK  173  A    between atoms: _447  and  _450
REMARK  174  A    between atoms: _450  and  _451
REMARK  175  A    between atoms: _461  and  _463
REMARK  176  A    between atoms: _463  and  _464
REMARK  177  A    between atoms: _467  and  _469
REMARK  178  A    between atoms: _469  and  _470
REMARK  179  A    between atoms: _469  and  _472
REMARK  180  A    between atoms: _472  and  _473
REMARK  181  A    between atoms: _473  and  _474
REMARK  182  A    between atoms: _477  and  _479
REMARK  183  A    between atoms: _479  and  _480
REMARK  184  A    between atoms: _479  and  _482
REMARK  185  A    between atoms: _482  and  _483
REMARK  186  A    between atoms: _485  and  _487
REMARK  187  A    between atoms: _487  and  _488
REMARK  188  A    between atoms: _490  and  _492
REMARK  189  A    between atoms: _492  and  _493
REMARK  190  A    between atoms: _495  and  _497
REMARK  191  A    between atoms: _497  and  _498
REMARK  192  A    between atoms: _497  and  _500
REMARK  193  A    between atoms: _500  and  _501
REMARK  194  A    between atoms: _504  and  _506
REMARK  195  A    between atoms: _506  and  _507
REMARK  196  A    between atoms: _506  and  _509
REMARK  197  A    between atoms: _512  and  _514
REMARK  198  A    between atoms: _514  and  _515
REMARK  199  A    between atoms: _517  and  _519
REMARK  200  A    between atoms: _519  and  _520
REMARK  201  A    between atoms: _523  and  _525
REMARK  202  A    between atoms: _525  and  _526
REMARK  203  A    between atoms: _525  and  _528
REMARK  204  A    between atoms: _528  and  _529
REMARK  205  A    between atoms: _535  and  _536
REMARK  206  A    between atoms: _541  and  _543
REMARK  207  A    between atoms: _543  and  _544
REMARK  208  A    between atoms: _543  and  _546
REMARK  209  A    between atoms: _546  and  _547
REMARK  210  A    between atoms: _550  and  _552
REMARK  211  A    between atoms: _552  and  _553
REMARK  212  A    between atoms: _552  and  _555
REMARK  213  A    between atoms: _555  and  _556
REMARK  214  A    between atoms: _558  and  _560
REMARK  215  A    between atoms: _560  and  _561
REMARK  216  A    between atoms: _560  and  _563
REMARK  217  A    between atoms: _563  and  _564
REMARK  218  A    between atoms: _567  and  _569
REMARK  219  A    between atoms: _569  and  _570
REMARK  220  A    between atoms: _569  and  _572
REMARK  221  A    between atoms: _572  and  _573
REMARK  222  A    between atoms: _578  and  _580
REMARK  223  A    between atoms: _580  and  _581
REMARK  224  A    between atoms: _580  and  _583
REMARK  225  A    between atoms: _583  and  _584
REMARK                            x       y       z     vdW  Elec       q    Type
REMARK                         _______ _______ _______ _____ _____    ______ ____
ROOT
ATOM      1  O   HOH     1      14.207  -4.347  48.562  0.00  0.00    +0.000 OA
ENDROOT
TORSDOF 0
REMARK  Name = ../refined-set-2016/2w7y/2w7y_pocket.pdb
REMARK  225 active torsions:
REMARK  status: ('A' for Active; 'I' for Inactive)
REMARK    1  A    between atoms: _1  and  _3
REMARK    2  A    between atoms: _3  and  _4
REMARK    3  A    between atoms: _3  and  _6
REMARK    4  A    between atoms: _6  and  _7
REMARK    5  A    between atoms: _12  and  _13
REMARK    6  A    between atoms: _15  and  _17
REMARK    7  A    between atoms: _17  and  _18
REMARK    8  A    between atoms: _17  and  _20
REMARK    9  A    between atoms: _20  and  _21
REMARK   10  A    between atoms: _26  and  _28
REMARK   11  A    between atoms: _28  and  _29
REMARK   12  A    between atoms: _31  and  _33
REMARK   13  A    between atoms: _33  and  _34
REMARK   14  A    between atoms: _33  and  _36
REMARK   15  A    between atoms: _36  and  _37
REMARK   16  A    between atoms: _42  and  _43
REMARK   17  A    between atoms: _45  and  _47
REMARK   18  A    between atoms: _47  and  _48
REMARK   19  A    between atoms: _47  and  _50
REMARK   20  A    between atoms: _50  and  _51
REMARK   21  A    between atoms: _56  and  _58
REMARK   22  A    between atoms: _58  and  _59
REMARK   23  A    between atoms: _58  and  _61
REMARK   24  A    between atoms: _61  and  _62
REMARK   25  A    between atoms: _67  and  _69
REMARK   26  A    between atoms: _69  and  _70
REMARK   27  A    between atoms: _69  and  _72
REMARK   28  A    between atoms: _72  and  _73
REMARK   29  A    between atoms: _83  and  _85
REMARK   30  A    between atoms: _85  and  _86
REMARK   31  A    between atoms: _85  and  _88
REMARK   32  A    between atoms: _91  and  _93
REMARK   33  A    between atoms: _93  and  _94
REMARK   34  A    between atoms: _97  and  _99
REMARK   35  A    between atoms: _99  and  _100
REMARK   36  A    between atoms: _99  and  _102
REMARK   37  A    between atoms: _102  and  _103
REMARK   38  A    between atoms: _103  and  _104
REMARK   39  A    between atoms: _106  and  _108
REMARK   40  A    between atoms: _108  and  _109
REMARK   41  A    between atoms: _108  and  _111
REMARK   42  A    between atoms: _111  and  _112
REMARK   43  A    between atoms: _117  and  _118
REMARK   44  A    between atoms: _120  and  _122
REMARK   45  A    between atoms: _122  and  _123
REMARK   46  A    between atoms: _122  and  _125
REMARK   47  A    between atoms: _128  and  _130
REMARK   48  A    between atoms: _130  and  _131
REMARK   49  A    between atoms: _130  and  _133
REMARK   50  A    between atoms: _133  and  _134
REMARK   51  A    between atoms: _139  and  _141
REMARK   52  A    between atoms: _141  and  _142
REMARK   53  A    between atoms: _144  and  _146
REMARK   54  A    between atoms: _146  and  _147
REMARK   55  A    between atoms: _146  and  _149
REMARK   56  A    between atoms: _149  and  _150
REMARK   57  A    between atoms: _153  and  _155
REMARK   58  A    between atoms: _155  and  _156
REMARK   59  A    between atoms: _155  and  _158
REMARK   60  A    between atoms: _158  and  _159
REMARK   61  A    between atoms: _159  and  _160
REMARK   62  A    between atoms: _160  and  _161
REMARK   63  A    between atoms: _161  and  _162
REMARK   64  A    between atoms: _166  and  _168
REMARK   65  A    between atoms: _168  and  _169
REMARK   66  A    between atoms: _168  and  _171
REMARK   67  A    between atoms: _171  and  _172
REMARK   68  A    between atoms: _175  and  _177
REMARK   69  A    between atoms: _177  and  _178
REMARK   70  A    between atoms: _177  and  _180
REMARK   71  A    between atoms: _180  and  _181
REMARK   72  A    between atoms: _184  and  _186
REMARK   73  A    between atoms: _186  and  _187
REMARK   74  A    between atoms: _190  and  _192
REMARK   75  A    between atoms: _192  and  _193
REMARK   76  A    between atoms: _195  and  _197
REMARK   77  A    between atoms: _197  and  _198
REMARK   78  A    between atoms: _197  and  _200
REMARK   79  A    between atoms: _200  and  _201
REMARK   80  A    between atoms: _206  and  _208
REMARK   81  A    between atoms: _208  and  _209
REMARK   82  A    between atoms: _212  and  _214
REMARK   83  A    between atoms: _214  and  _215
REMARK   84  A    between atoms: _214  and  _217
REMARK   85  A    between atoms: _217  and  _218
REMARK   86  A    between atoms: _223  and  _225
REMARK   87  A    between atoms: _225  and  _226
REMARK   88  A    between atoms: _225  and  _228
REMARK   89  A    between atoms: _228  and  _229
REMARK   90  A    between atoms: _229  and  _230
REMARK   91  A    between atoms: _233  and  _235
REMARK   92  A    between atoms: _235  and  _236
REMARK   93  A    between atoms: _235  and  _238
REMARK   94  A    between atoms: _238  and  _239
REMARK   95  A    between atoms: _239  and  _240
REMARK   96  A    between atoms: _245  and  _247
REMARK   97  A    between atoms: _247  and  _248
REMARK   98  A    between atoms: _247  and  _250
REMARK   99  A    between atoms: _250  and  _251
REMARK  100  A    between atoms: _254  and  _256
REMARK  101  A    between atoms: _256  and  _257
REMARK  102  A    between atoms: _256  and  _259
REMARK  103  A    between atoms: _259  and  _260
REMARK  104  A    between atoms: _266  and  _268
REMARK  105  A    between atoms: _268  and  _269
REMARK  106  A    between atoms: _268  and  _271
REMARK  107  A    between atoms: _271  and  _272
REMARK  108  A    between atoms: _275  and  _277
REMARK  109  A    between atoms: _277  and  _278
REMARK  110  A    between atoms: _277  and  _280
REMARK  111  A    between atoms: _280  and  _281
REMARK  112  A    between atoms: _281  and  _282
REMARK  113  A    between atoms: _284  and  _286
REMARK  114  A    between atoms: _286  and  _287
REMARK  115  A    between atoms: _286  and  _289
REMARK  116  A    between atoms: _289  and  _290
REMARK  117  A    between atoms: _300  and  _302
REMARK  118  A    between atoms: _302  and  _303
REMARK  119  A    between atoms: _302  and  _305
REMARK  120  A    between atoms: _305  and  _306
REMARK  121  A    between atoms: _306  and  _307
REMARK  122  A    between atoms: _311  and  _312
REMARK  123  A    between atoms: _317  and  _319
REMARK  124  A    between atoms: _319  and  _320
REMARK  125  A    between atoms: _319  and  _322
REMARK  126  A    between atoms: _322  and  _323
REMARK  127  A    between atoms: _326  and  _328
REMARK  128  A    between atoms: _328  and  _329
REMARK  129  A    between atoms: _328  and  _331
REMARK  130  A    between atoms: _331  and  _332
REMARK  131  A    between atoms: _332  and  _333
REMARK  132  A    between atoms: _333  and  _334
REMARK  133  A    between atoms: _343  and  _345
REMARK  134  A    between atoms: _345  and  _346
REMARK  135  A    between atoms: _345  and  _348
REMARK  136  A    between atoms: _348  and  _349
REMARK  137  A    between atoms: _352  and  _354
REMARK  138  A    between atoms: _354  and  _355
REMARK  139  A    between atoms: _358  and  _360
REMARK  140  A    between atoms: _360  and  _361
REMARK  141  A    between atoms: _360  and  _363
REMARK  142  A    between atoms: _363  and  _364
REMARK  143  A    between atoms: _369  and  _371
REMARK  144  A    between atoms: _371  and  _372
REMARK  145  A    between atoms: _375  and  _377
REMARK  146  A    between atoms: _377  and  _378
REMARK  147  A    between atoms: _377  and  _380
REMARK  148  A    between atoms: _380  and  _381
REMARK  149  A    between atoms: _386  and  _387
REMARK  150  A    between atoms: _389  and  _391
REMARK  151  A    between atoms: _391  and  _392
REMARK  152  A    between atoms: _391  and  _394
REMARK  153  A    between atoms: _394  and  _395
REMARK  154  A    between atoms: _397  and  _399
REMARK  155  A    between atoms: _399  and  _400
REMARK  156  A    between atoms: _399  and  _402
REMARK  157  A    between atoms: _402  and  _403
REMARK  158  A    between atoms: _409  and  _411
REMARK  159  A    between atoms: _411  and  _412
REMARK  160  A    between atoms: _411  and  _414
REMARK  161  A    between atoms: _414  and  _415
REMARK  162  A    between atoms: _421  and  _423
REMARK  163  A    between atoms: _423  and  _424
REMARK  164  A    between atoms: _423  and  _426
REMARK  165  A    between atoms: _426  and  _427
REMARK  166  A    between atoms: _432  and  _434
REMARK  167  A    between atoms: _434  and  _435
REMARK  168  A    between atoms: _437  and  _439
REMARK  169  A    between atoms: _439  and  _440
REMARK  170  A    between atoms: _439  and  _442
REMARK  171  A    between atoms: _445  and  _447
REMARK  172  A    between atoms: _447  and  _448
REMARK  173  A    between atoms: _447  and  _450
REMARK  174  A    between atoms: _450  and  _451
REMARK  175  A    between atoms: _461  and  _463
REMARK  176  A    between atoms: _463  and  _464
REMARK  177  A    between atoms: _467  and  _469
REMARK  178  A    between atoms: _469  and  _470
REMARK  179  A    between atoms: _469  and  _472
REMARK  180  A    between atoms: _472  and  _473
REMARK  181  A    between atoms: _473  and  _474
REMARK  182  A    between atoms: _477  and  _479
REMARK  183  A    between atoms: _479  and  _480
REMARK  184  A    between atoms: _479  and  _482
REMARK  185  A    between atoms: _482  and  _483
REMARK  186  A    between atoms: _485  and  _487
REMARK  187  A    between atoms: _487  and  _488
REMARK  188  A    between atoms: _490  and  _492
REMARK  189  A    between atoms: _492  and  _493
REMARK  190  A    between atoms: _495  and  _497
REMARK  191  A    between atoms: _497  and  _498
REMARK  192  A    between atoms: _497  and  _500
REMARK  193  A    between atoms: _500  and  _501
REMARK  194  A    between atoms: _504  and  _506
REMARK  195  A    between atoms: _506  and  _507
REMARK  196  A    between atoms: _506  and  _509
REMARK  197  A    between atoms: _512  and  _514
REMARK  198  A    between atoms: _514  and  _515
REMARK  199  A    between atoms: _517  and  _519
REMARK  200  A    between atoms: _519  and  _520
REMARK  201  A    between atoms: _523  and  _525
REMARK  202  A    between atoms: _525  and  _526
REMARK  203  A    between atoms: _525  and  _528
REMARK  204  A    between atoms: _528  and  _529
REMARK  205  A    between atoms: _535  and  _536
REMARK  206  A    between atoms: _541  and  _543
REMARK  207  A    between atoms: _543  and  _544
REMARK  208  A    between atoms: _543  and  _546
REMARK  209  A    between atoms: _546  and  _547
REMARK  210  A    between atoms: _550  and  _552
REMARK  211  A    between atoms: _552  and  _553
REMARK  212  A    between atoms: _552  and  _555
REMARK  213  A    between atoms: _555  and  _556
REMARK  214  A    between atoms: _558  and  _560
REMARK  215  A    between atoms: _560  and  _561
REMARK  216  A    between atoms: _560  and  _563
REMARK  217  A    between atoms: _563  and  _564
REMARK  218  A    between atoms: _567  and  _569
REMARK  219  A    between atoms: _569  and  _570
REMARK  220  A    between atoms: _569  and  _572
REMARK  221  A    between atoms: _572  and  _573
REMARK  222  A    between atoms: _578  and  _580
REMARK  223  A    between atoms: _580  and  _581
REMARK  224  A    between atoms: _580  and  _583
REMARK  225  A    between atoms: _583  and  _584
REMARK                            x       y       z     vdW  Elec       q    Type
REMARK                         _______ _______ _______ _____ _____    ______ ____
ROOT
ATOM      1  O   HOH     1      11.945  -6.207  45.329  0.00  0.00    +0.000 OA
ENDROOT
TORSDOF 0
REMARK  Name = ../refined-set-2016/2w7y/2w7y_pocket.pdb
REMARK  225 active torsions:
REMARK  status: ('A' for Active; 'I' for Inactive)
REMARK    1  A    between atoms: _1  and  _3
REMARK    2  A    between atoms: _3  and  _4
REMARK    3  A    between atoms: _3  and  _6
REMARK    4  A    between atoms: _6  and  _7
REMARK    5  A    between atoms: _12  and  _13
REMARK    6  A    between atoms: _15  and  _17
REMARK    7  A    between atoms: _17  and  _18
REMARK    8  A    between atoms: _17  and  _20
REMARK    9  A    between atoms: _20  and  _21
REMARK   10  A    between atoms: _26  and  _28
REMARK   11  A    between atoms: _28  and  _29
REMARK   12  A    between atoms: _31  and  _33
REMARK   13  A    between atoms: _33  and  _34
REMARK   14  A    between atoms: _33  and  _36
REMARK   15  A    between atoms: _36  and  _37
REMARK   16  A    between atoms: _42  and  _43
REMARK   17  A    between atoms: _45  and  _47
REMARK   18  A    between atoms: _47  and  _48
REMARK   19  A    between atoms: _47  and  _50
REMARK   20  A    between atoms: _50  and  _51
REMARK   21  A    between atoms: _56  and  _58
REMARK   22  A    between atoms: _58  and  _59
REMARK   23  A    between atoms: _58  and  _61
REMARK   24  A    between atoms: _61  and  _62
REMARK   25  A    between atoms: _67  and  _69
REMARK   26  A    between atoms: _69  and  _70
REMARK   27  A    between atoms: _69  and  _72
REMARK   28  A    between atoms: _72  and  _73
REMARK   29  A    between atoms: _83  and  _85
REMARK   30  A    between atoms: _85  and  _86
REMARK   31  A    between atoms: _85  and  _88
REMARK   32  A    between atoms: _91  and  _93
REMARK   33  A    between atoms: _93  and  _94
REMARK   34  A    between atoms: _97  and  _99
REMARK   35  A    between atoms: _99  and  _100
REMARK   36  A    between atoms: _99  and  _102
REMARK   37  A    between atoms: _102  and  _103
REMARK   38  A    between atoms: _103  and  _104
REMARK   39  A    between atoms: _106  and  _108
REMARK   40  A    between atoms: _108  and  _109
REMARK   41  A    between atoms: _108  and  _111
REMARK   42  A    between atoms: _111  and  _112
REMARK   43  A    between atoms: _117  and  _118
REMARK   44  A    between atoms: _120  and  _122
REMARK   45  A    between atoms: _122  and  _123
REMARK   46  A    between atoms: _122  and  _125
REMARK   47  A    between atoms: _128  and  _130
REMARK   48  A    between atoms: _130  and  _131
REMARK   49  A    between atoms: _130  and  _133
REMARK   50  A    between atoms: _133  and  _134
REMARK   51  A    between atoms: _139  and  _141
REMARK   52  A    between atoms: _141  and  _142
REMARK   53  A    between atoms: _144  and  _146
REMARK   54  A    between atoms: _146  and  _147
REMARK   55  A    between atoms: _146  and  _149
REMARK   56  A    between atoms: _149  and  _150
REMARK   57  A    between atoms: _153  and  _155
REMARK   58  A    between atoms: _155  and  _156
REMARK   59  A    between atoms: _155  and  _158
REMARK   60  A    between atoms: _158  and  _159
REMARK   61  A    between atoms: _159  and  _160
REMARK   62  A    between atoms: _160  and  _161
REMARK   63  A    between atoms: _161  and  _162
REMARK   64  A    between atoms: _166  and  _168
REMARK   65  A    between atoms: _168  and  _169
REMARK   66  A    between atoms: _168  and  _171
REMARK   67  A    between atoms: _171  and  _172
REMARK   68  A    between atoms: _175  and  _177
REMARK   69  A    between atoms: _177  and  _178
REMARK   70  A    between atoms: _177  and  _180
REMARK   71  A    between atoms: _180  and  _181
REMARK   72  A    between atoms: _184  and  _186
REMARK   73  A    between atoms: _186  and  _187
REMARK   74  A    between atoms: _190  and  _192
REMARK   75  A    between atoms: _192  and  _193
REMARK   76  A    between atoms: _195  and  _197
REMARK   77  A    between atoms: _197  and  _198
REMARK   78  A    between atoms: _197  and  _200
REMARK   79  A    between atoms: _200  and  _201
REMARK   80  A    between atoms: _206  and  _208
REMARK   81  A    between atoms: _208  and  _209
REMARK   82  A    between atoms: _212  and  _214
REMARK   83  A    between atoms: _214  and  _215
REMARK   84  A    between atoms: _214  and  _217
REMARK   85  A    between atoms: _217  and  _218
REMARK   86  A    between atoms: _223  and  _225
REMARK   87  A    between atoms: _225  and  _226
REMARK   88  A    between atoms: _225  and  _228
REMARK   89  A    between atoms: _228  and  _229
REMARK   90  A    between atoms: _229  and  _230
REMARK   91  A    between atoms: _233  and  _235
REMARK   92  A    between atoms: _235  and  _236
REMARK   93  A    between atoms: _235  and  _238
REMARK   94  A    between atoms: _238  and  _239
REMARK   95  A    between atoms: _239  and  _240
REMARK   96  A    between atoms: _245  and  _247
REMARK   97  A    between atoms: _247  and  _248
REMARK   98  A    between atoms: _247  and  _250
REMARK   99  A    between atoms: _250  and  _251
REMARK  100  A    between atoms: _254  and  _256
REMARK  101  A    between atoms: _256  and  _257
REMARK  102  A    between atoms: _256  and  _259
REMARK  103  A    between atoms: _259  and  _260
REMARK  104  A    between atoms: _266  and  _268
REMARK  105  A    between atoms: _268  and  _269
REMARK  106  A    between atoms: _268  and  _271
REMARK  107  A    between atoms: _271  and  _272
REMARK  108  A    between atoms: _275  and  _277
REMARK  109  A    between atoms: _277  and  _278
REMARK  110  A    between atoms: _277  and  _280
REMARK  111  A    between atoms: _280  and  _281
REMARK  112  A    between atoms: _281  and  _282
REMARK  113  A    between atoms: _284  and  _286
REMARK  114  A    between atoms: _286  and  _287
REMARK  115  A    between atoms: _286  and  _289
REMARK  116  A    between atoms: _289  and  _290
REMARK  117  A    between atoms: _300  and  _302
REMARK  118  A    between atoms: _302  and  _303
REMARK  119  A    between atoms: _302  and  _305
REMARK  120  A    between atoms: _305  and  _306
REMARK  121  A    between atoms: _306  and  _307
REMARK  122  A    between atoms: _311  and  _312
REMARK  123  A    between atoms: _317  and  _319
REMARK  124  A    between atoms: _319  and  _320
REMARK  125  A    between atoms: _319  and  _322
REMARK  126  A    between atoms: _322  and  _323
REMARK  127  A    between atoms: _326  and  _328
REMARK  128  A    between atoms: _328  and  _329
REMARK  129  A    between atoms: _328  and  _331
REMARK  130  A    between atoms: _331  and  _332
REMARK  131  A    between atoms: _332  and  _333
REMARK  132  A    between atoms: _333  and  _334
REMARK  133  A    between atoms: _343  and  _345
REMARK  134  A    between atoms: _345  and  _346
REMARK  135  A    between atoms: _345  and  _348
REMARK  136  A    between atoms: _348  and  _349
REMARK  137  A    between atoms: _352  and  _354
REMARK  138  A    between atoms: _354  and  _355
REMARK  139  A    between atoms: _358  and  _360
REMARK  140  A    between atoms: _360  and  _361
REMARK  141  A    between atoms: _360  and  _363
REMARK  142  A    between atoms: _363  and  _364
REMARK  143  A    between atoms: _369  and  _371
REMARK  144  A    between atoms: _371  and  _372
REMARK  145  A    between atoms: _375  and  _377
REMARK  146  A    between atoms: _377  and  _378
REMARK  147  A    between atoms: _377  and  _380
REMARK  148  A    between atoms: _380  and  _381
REMARK  149  A    between atoms: _386  and  _387
REMARK  150  A    between atoms: _389  and  _391
REMARK  151  A    between atoms: _391  and  _392
REMARK  152  A    between atoms: _391  and  _394
REMARK  153  A    between atoms: _394  and  _395
REMARK  154  A    between atoms: _397  and  _399
REMARK  155  A    between atoms: _399  and  _400
REMARK  156  A    between atoms: _399  and  _402
REMARK  157  A    between atoms: _402  and  _403
REMARK  158  A    between atoms: _409  and  _411
REMARK  159  A    between atoms: _411  and  _412
REMARK  160  A    between atoms: _411  and  _414
REMARK  161  A    between atoms: _414  and  _415
REMARK  162  A    between atoms: _421  and  _423
REMARK  163  A    between atoms: _423  and  _424
REMARK  164  A    between atoms: _423  and  _426
REMARK  165  A    between atoms: _426  and  _427
REMARK  166  A    between atoms: _432  and  _434
REMARK  167  A    between atoms: _434  and  _435
REMARK  168  A    between atoms: _437  and  _439
REMARK  169  A    between atoms: _439  and  _440
REMARK  170  A    between atoms: _439  and  _442
REMARK  171  A    between atoms: _445  and  _447
REMARK  172  A    between atoms: _447  and  _448
REMARK  173  A    between atoms: _447  and  _450
REMARK  174  A    between atoms: _450  and  _451
REMARK  175  A    between atoms: _461  and  _463
REMARK  176  A    between atoms: _463  and  _464
REMARK  177  A    between atoms: _467  and  _469
REMARK  178  A    between atoms: _469  and  _470
REMARK  179  A    between atoms: _469  and  _472
REMARK  180  A    between atoms: _472  and  _473
REMARK  181  A    between atoms: _473  and  _474
REMARK  182  A    between atoms: _477  and  _479
REMARK  183  A    between atoms: _479  and  _480
REMARK  184  A    between atoms: _479  and  _482
REMARK  185  A    between atoms: _482  and  _483
REMARK  186  A    between atoms: _485  and  _487
REMARK  187  A    between atoms: _487  and  _488
REMARK  188  A    between atoms: _490  and  _492
REMARK  189  A    between atoms: _492  and  _493
REMARK  190  A    between atoms: _495  and  _497
REMARK  191  A    between atoms: _497  and  _498
REMARK  192  A    between atoms: _497  and  _500
REMARK  193  A    between atoms: _500  and  _501
REMARK  194  A    between atoms: _504  and  _506
REMARK  195  A    between atoms: _506  and  _507
REMARK  196  A    between atoms: _506  and  _509
REMARK  197  A    between atoms: _512  and  _514
REMARK  198  A    between atoms: _514  and  _515
REMARK  199  A    between atoms: _517  and  _519
REMARK  200  A    between atoms: _519  and  _520
REMARK  201  A    between atoms: _523  and  _525
REMARK  202  A    between atoms: _525  and  _526
REMARK  203  A    between atoms: _525  and  _528
REMARK  204  A    between atoms: _528  and  _529
REMARK  205  A    between atoms: _535  and  _536
REMARK  206  A    between atoms: _541  and  _543
REMARK  207  A    between atoms: _543  and  _544
REMARK  208  A    between atoms: _543  and  _546
REMARK  209  A    between atoms: _546  and  _547
REMARK  210  A    between atoms: _550  and  _552
REMARK  211  A    between atoms: _552  and  _553
REMARK  212  A    between atoms: _552  and  _555
REMARK  213  A    between atoms: _555  and  _556
REMARK  214  A    between atoms: _558  and  _560
REMARK  215  A    between atoms: _560  and  _561
REMARK  216  A    between atoms: _560  and  _563
REMARK  217  A    between atoms: _563  and  _564
REMARK  218  A    between atoms: _567  and  _569
REMARK  219  A    between atoms: _569  and  _570
REMARK  220  A    between atoms: _569  and  _572
REMARK  221  A    between atoms: _572  and  _573
REMARK  222  A    between atoms: _578  and  _580
REMARK  223  A    between atoms: _580  and  _581
REMARK  224  A    between atoms: _580  and  _583
REMARK  225  A    between atoms: _583  and  _584
REMARK                            x       y       z     vdW  Elec       q    Type
REMARK                         _______ _______ _______ _____ _____    ______ ____
ROOT
ATOM      1  O   HOH     1      22.690  -4.451  42.558  0.00  0.00    +0.000 OA
ENDROOT
TORSDOF 0
REMARK  Name = ../refined-set-2016/2w7y/2w7y_pocket.pdb
REMARK  225 active torsions:
REMARK  status: ('A' for Active; 'I' for Inactive)
REMARK    1  A    between atoms: _1  and  _3
REMARK    2  A    between atoms: _3  and  _4
REMARK    3  A    between atoms: _3  and  _6
REMARK    4  A    between atoms: _6  and  _7
REMARK    5  A    between atoms: _12  and  _13
REMARK    6  A    between atoms: _15  and  _17
REMARK    7  A    between atoms: _17  and  _18
REMARK    8  A    between atoms: _17  and  _20
REMARK    9  A    between atoms: _20  and  _21
REMARK   10  A    between atoms: _26  and  _28
REMARK   11  A    between atoms: _28  and  _29
REMARK   12  A    between atoms: _31  and  _33
REMARK   13  A    between atoms: _33  and  _34
REMARK   14  A    between atoms: _33  and  _36
REMARK   15  A    between atoms: _36  and  _37
REMARK   16  A    between atoms: _42  and  _43
REMARK   17  A    between atoms: _45  and  _47
REMARK   18  A    between atoms: _47  and  _48
REMARK   19  A    between atoms: _47  and  _50
REMARK   20  A    between atoms: _50  and  _51
REMARK   21  A    between atoms: _56  and  _58
REMARK   22  A    between atoms: _58  and  _59
REMARK   23  A    between atoms: _58  and  _61
REMARK   24  A    between atoms: _61  and  _62
REMARK   25  A    between atoms: _67  and  _69
REMARK   26  A    between atoms: _69  and  _70
REMARK   27  A    between atoms: _69  and  _72
REMARK   28  A    between atoms: _72  and  _73
REMARK   29  A    between atoms: _83  and  _85
REMARK   30  A    between atoms: _85  and  _86
REMARK   31  A    between atoms: _85  and  _88
REMARK   32  A    between atoms: _91  and  _93
REMARK   33  A    between atoms: _93  and  _94
REMARK   34  A    between atoms: _97  and  _99
REMARK   35  A    between atoms: _99  and  _100
REMARK   36  A    between atoms: _99  and  _102
REMARK   37  A    between atoms: _102  and  _103
REMARK   38  A    between atoms: _103  and  _104
REMARK   39  A    between atoms: _106  and  _108
REMARK   40  A    between atoms: _108  and  _109
REMARK   41  A    between atoms: _108  and  _111
REMARK   42  A    between atoms: _111  and  _112
REMARK   43  A    between atoms: _117  and  _118
REMARK   44  A    between atoms: _120  and  _122
REMARK   45  A    between atoms: _122  and  _123
REMARK   46  A    between atoms: _122  and  _125
REMARK   47  A    between atoms: _128  and  _130
REMARK   48  A    between atoms: _130  and  _131
REMARK   49  A    between atoms: _130  and  _133
REMARK   50  A    between atoms: _133  and  _134
REMARK   51  A    between atoms: _139  and  _141
REMARK   52  A    between atoms: _141  and  _142
REMARK   53  A    between atoms: _144  and  _146
REMARK   54  A    between atoms: _146  and  _147
REMARK   55  A    between atoms: _146  and  _149
REMARK   56  A    between atoms: _149  and  _150
REMARK   57  A    between atoms: _153  and  _155
REMARK   58  A    between atoms: _155  and  _156
REMARK   59  A    between atoms: _155  and  _158
REMARK   60  A    between atoms: _158  and  _159
REMARK   61  A    between atoms: _159  and  _160
REMARK   62  A    between atoms: _160  and  _161
REMARK   63  A    between atoms: _161  and  _162
REMARK   64  A    between atoms: _166  and  _168
REMARK   65  A    between atoms: _168  and  _169
REMARK   66  A    between atoms: _168  and  _171
REMARK   67  A    between atoms: _171  and  _172
REMARK   68  A    between atoms: _175  and  _177
REMARK   69  A    between atoms: _177  and  _178
REMARK   70  A    between atoms: _177  and  _180
REMARK   71  A    between atoms: _180  and  _181
REMARK   72  A    between atoms: _184  and  _186
REMARK   73  A    between atoms: _186  and  _187
REMARK   74  A    between atoms: _190  and  _192
REMARK   75  A    between atoms: _192  and  _193
REMARK   76  A    between atoms: _195  and  _197
REMARK   77  A    between atoms: _197  and  _198
REMARK   78  A    between atoms: _197  and  _200
REMARK   79  A    between atoms: _200  and  _201
REMARK   80  A    between atoms: _206  and  _208
REMARK   81  A    between atoms: _208  and  _209
REMARK   82  A    between atoms: _212  and  _214
REMARK   83  A    between atoms: _214  and  _215
REMARK   84  A    between atoms: _214  and  _217
REMARK   85  A    between atoms: _217  and  _218
REMARK   86  A    between atoms: _223  and  _225
REMARK   87  A    between atoms: _225  and  _226
REMARK   88  A    between atoms: _225  and  _228
REMARK   89  A    between atoms: _228  and  _229
REMARK   90  A    between atoms: _229  and  _230
REMARK   91  A    between atoms: _233  and  _235
REMARK   92  A    between atoms: _235  and  _236
REMARK   93  A    between atoms: _235  and  _238
REMARK   94  A    between atoms: _238  and  _239
REMARK   95  A    between atoms: _239  and  _240
REMARK   96  A    between atoms: _245  and  _247
REMARK   97  A    between atoms: _247  and  _248
REMARK   98  A    between atoms: _247  and  _250
REMARK   99  A    between atoms: _250  and  _251
REMARK  100  A    between atoms: _254  and  _256
REMARK  101  A    between atoms: _256  and  _257
REMARK  102  A    between atoms: _256  and  _259
REMARK  103  A    between atoms: _259  and  _260
REMARK  104  A    between atoms: _266  and  _268
REMARK  105  A    between atoms: _268  and  _269
REMARK  106  A    between atoms: _268  and  _271
REMARK  107  A    between atoms: _271  and  _272
REMARK  108  A    between atoms: _275  and  _277
REMARK  109  A    between atoms: _277  and  _278
REMARK  110  A    between atoms: _277  and  _280
REMARK  111  A    between atoms: _280  and  _281
REMARK  112  A    between atoms: _281  and  _282
REMARK  113  A    between atoms: _284  and  _286
REMARK  114  A    between atoms: _286  and  _287
REMARK  115  A    between atoms: _286  and  _289
REMARK  116  A    between atoms: _289  and  _290
REMARK  117  A    between atoms: _300  and  _302
REMARK  118  A    between atoms: _302  and  _303
REMARK  119  A    between atoms: _302  and  _305
REMARK  120  A    between atoms: _305  and  _306
REMARK  121  A    between atoms: _306  and  _307
REMARK  122  A    between atoms: _311  and  _312
REMARK  123  A    between atoms: _317  and  _319
REMARK  124  A    between atoms: _319  and  _320
REMARK  125  A    between atoms: _319  and  _322
REMARK  126  A    between atoms: _322  and  _323
REMARK  127  A    between atoms: _326  and  _328
REMARK  128  A    between atoms: _328  and  _329
REMARK  129  A    between atoms: _328  and  _331
REMARK  130  A    between atoms: _331  and  _332
REMARK  131  A    between atoms: _332  and  _333
REMARK  132  A    between atoms: _333  and  _334
REMARK  133  A    between atoms: _343  and  _345
REMARK  134  A    between atoms: _345  and  _346
REMARK  135  A    between atoms: _345  and  _348
REMARK  136  A    between atoms: _348  and  _349
REMARK  137  A    between atoms: _352  and  _354
REMARK  138  A    between atoms: _354  and  _355
REMARK  139  A    between atoms: _358  and  _360
REMARK  140  A    between atoms: _360  and  _361
REMARK  141  A    between atoms: _360  and  _363
REMARK  142  A    between atoms: _363  and  _364
REMARK  143  A    between atoms: _369  and  _371
REMARK  144  A    between atoms: _371  and  _372
REMARK  145  A    between atoms: _375  and  _377
REMARK  146  A    between atoms: _377  and  _378
REMARK  147  A    between atoms: _377  and  _380
REMARK  148  A    between atoms: _380  and  _381
REMARK  149  A    between atoms: _386  and  _387
REMARK  150  A    between atoms: _389  and  _391
REMARK  151  A    between atoms: _391  and  _392
REMARK  152  A    between atoms: _391  and  _394
REMARK  153  A    between atoms: _394  and  _395
REMARK  154  A    between atoms: _397  and  _399
REMARK  155  A    between atoms: _399  and  _400
REMARK  156  A    between atoms: _399  and  _402
REMARK  157  A    between atoms: _402  and  _403
REMARK  158  A    between atoms: _409  and  _411
REMARK  159  A    between atoms: _411  and  _412
REMARK  160  A    between atoms: _411  and  _414
REMARK  161  A    between atoms: _414  and  _415
REMARK  162  A    between atoms: _421  and  _423
REMARK  163  A    between atoms: _423  and  _424
REMARK  164  A    between atoms: _423  and  _426
REMARK  165  A    between atoms: _426  and  _427
REMARK  166  A    between atoms: _432  and  _434
REMARK  167  A    between atoms: _434  and  _435
REMARK  168  A    between atoms: _437  and  _439
REMARK  169  A    between atoms: _439  and  _440
REMARK  170  A    between atoms: _439  and  _442
REMARK  171  A    between atoms: _445  and  _447
REMARK  172  A    between atoms: _447  and  _448
REMARK  173  A    between atoms: _447  and  _450
REMARK  174  A    between atoms: _450  and  _451
REMARK  175  A    between atoms: _461  and  _463
REMARK  176  A    between atoms: _463  and  _464
REMARK  177  A    between atoms: _467  and  _469
REMARK  178  A    between atoms: _469  and  _470
REMARK  179  A    between atoms: _469  and  _472
REMARK  180  A    between atoms: _472  and  _473
REMARK  181  A    between atoms: _473  and  _474
REMARK  182  A    between atoms: _477  and  _479
REMARK  183  A    between atoms: _479  and  _480
REMARK  184  A    between atoms: _479  and  _482
REMARK  185  A    between atoms: _482  and  _483
REMARK  186  A    between atoms: _485  and  _487
REMARK  187  A    between atoms: _487  and  _488
REMARK  188  A    between atoms: _490  and  _492
REMARK  189  A    between atoms: _492  and  _493
REMARK  190  A    between atoms: _495  and  _497
REMARK  191  A    between atoms: _497  and  _498
REMARK  192  A    between atoms: _497  and  _500
REMARK  193  A    between atoms: _500  and  _501
REMARK  194  A    between atoms: _504  and  _506
REMARK  195  A    between atoms: _506  and  _507
REMARK  196  A    between atoms: _506  and  _509
REMARK  197  A    between atoms: _512  and  _514
REMARK  198  A    between atoms: _514  and  _515
REMARK  199  A    between atoms: _517  and  _519
REMARK  200  A    between atoms: _519  and  _520
REMARK  201  A    between atoms: _523  and  _525
REMARK  202  A    between atoms: _525  and  _526
REMARK  203  A    between atoms: _525  and  _528
REMARK  204  A    between atoms: _528  and  _529
REMARK  205  A    between atoms: _535  and  _536
REMARK  206  A    between atoms: _541  and  _543
REMARK  207  A    between atoms: _543  and  _544
REMARK  208  A    between atoms: _543  and  _546
REMARK  209  A    between atoms: _546  and  _547
REMARK  210  A    between atoms: _550  and  _552
REMARK  211  A    between atoms: _552  and  _553
REMARK  212  A    between atoms: _552  and  _555
REMARK  213  A    between atoms: _555  and  _556
REMARK  214  A    between atoms: _558  and  _560
REMARK  215  A    between atoms: _560  and  _561
REMARK  216  A    between atoms: _560  and  _563
REMARK  217  A    between atoms: _563  and  _564
REMARK  218  A    between atoms: _567  and  _569
REMARK  219  A    between atoms: _569  and  _570
REMARK  220  A    between atoms: _569  and  _572
REMARK  221  A    between atoms: _572  and  _573
REMARK  222  A    between atoms: _578  and  _580
REMARK  223  A    between atoms: _580  and  _581
REMARK  224  A    between atoms: _580  and  _583
REMARK  225  A    between atoms: _583  and  _584
REMARK                            x       y       z     vdW  Elec       q    Type
REMARK                         _______ _______ _______ _____ _____    ______ ____
ROOT
ATOM      1  O   HOH     1      24.454   3.088  41.525  0.00  0.00    +0.000 OA
ENDROOT
TORSDOF 0
REMARK  Name = ../refined-set-2016/2w7y/2w7y_pocket.pdb
REMARK  225 active torsions:
REMARK  status: ('A' for Active; 'I' for Inactive)
REMARK    1  A    between atoms: _1  and  _3
REMARK    2  A    between atoms: _3  and  _4
REMARK    3  A    between atoms: _3  and  _6
REMARK    4  A    between atoms: _6  and  _7
REMARK    5  A    between atoms: _12  and  _13
REMARK    6  A    between atoms: _15  and  _17
REMARK    7  A    between atoms: _17  and  _18
REMARK    8  A    between atoms: _17  and  _20
REMARK    9  A    between atoms: _20  and  _21
REMARK   10  A    between atoms: _26  and  _28
REMARK   11  A    between atoms: _28  and  _29
REMARK   12  A    between atoms: _31  and  _33
REMARK   13  A    between atoms: _33  and  _34
REMARK   14  A    between atoms: _33  and  _36
REMARK   15  A    between atoms: _36  and  _37
REMARK   16  A    between atoms: _42  and  _43
REMARK   17  A    between atoms: _45  and  _47
REMARK   18  A    between atoms: _47  and  _48
REMARK   19  A    between atoms: _47  and  _50
REMARK   20  A    between atoms: _50  and  _51
REMARK   21  A    between atoms: _56  and  _58
REMARK   22  A    between atoms: _58  and  _59
REMARK   23  A    between atoms: _58  and  _61
REMARK   24  A    between atoms: _61  and  _62
REMARK   25  A    between atoms: _67  and  _69
REMARK   26  A    between atoms: _69  and  _70
REMARK   27  A    between atoms: _69  and  _72
REMARK   28  A    between atoms: _72  and  _73
REMARK   29  A    between atoms: _83  and  _85
REMARK   30  A    between atoms: _85  and  _86
REMARK   31  A    between atoms: _85  and  _88
REMARK   32  A    between atoms: _91  and  _93
REMARK   33  A    between atoms: _93  and  _94
REMARK   34  A    between atoms: _97  and  _99
REMARK   35  A    between atoms: _99  and  _100
REMARK   36  A    between atoms: _99  and  _102
REMARK   37  A    between atoms: _102  and  _103
REMARK   38  A    between atoms: _103  and  _104
REMARK   39  A    between atoms: _106  and  _108
REMARK   40  A    between atoms: _108  and  _109
REMARK   41  A    between atoms: _108  and  _111
REMARK   42  A    between atoms: _111  and  _112
REMARK   43  A    between atoms: _117  and  _118
REMARK   44  A    between atoms: _120  and  _122
REMARK   45  A    between atoms: _122  and  _123
REMARK   46  A    between atoms: _122  and  _125
REMARK   47  A    between atoms: _128  and  _130
REMARK   48  A    between atoms: _130  and  _131
REMARK   49  A    between atoms: _130  and  _133
REMARK   50  A    between atoms: _133  and  _134
REMARK   51  A    between atoms: _139  and  _141
REMARK   52  A    between atoms: _141  and  _142
REMARK   53  A    between atoms: _144  and  _146
REMARK   54  A    between atoms: _146  and  _147
REMARK   55  A    between atoms: _146  and  _149
REMARK   56  A    between atoms: _149  and  _150
REMARK   57  A    between atoms: _153  and  _155
REMARK   58  A    between atoms: _155  and  _156
REMARK   59  A    between atoms: _155  and  _158
REMARK   60  A    between atoms: _158  and  _159
REMARK   61  A    between atoms: _159  and  _160
REMARK   62  A    between atoms: _160  and  _161
REMARK   63  A    between atoms: _161  and  _162
REMARK   64  A    between atoms: _166  and  _168
REMARK   65  A    between atoms: _168  and  _169
REMARK   66  A    between atoms: _168  and  _171
REMARK   67  A    between atoms: _171  and  _172
REMARK   68  A    between atoms: _175  and  _177
REMARK   69  A    between atoms: _177  and  _178
REMARK   70  A    between atoms: _177  and  _180
REMARK   71  A    between atoms: _180  and  _181
REMARK   72  A    between atoms: _184  and  _186
REMARK   73  A    between atoms: _186  and  _187
REMARK   74  A    between atoms: _190  and  _192
REMARK   75  A    between atoms: _192  and  _193
REMARK   76  A    between atoms: _195  and  _197
REMARK   77  A    between atoms: _197  and  _198
REMARK   78  A    between atoms: _197  and  _200
REMARK   79  A    between atoms: _200  and  _201
REMARK   80  A    between atoms: _206  and  _208
REMARK   81  A    between atoms: _208  and  _209
REMARK   82  A    between atoms: _212  and  _214
REMARK   83  A    between atoms: _214  and  _215
REMARK   84  A    between atoms: _214  and  _217
REMARK   85  A    between atoms: _217  and  _218
REMARK   86  A    between atoms: _223  and  _225
REMARK   87  A    between atoms: _225  and  _226
REMARK   88  A    between atoms: _225  and  _228
REMARK   89  A    between atoms: _228  and  _229
REMARK   90  A    between atoms: _229  and  _230
REMARK   91  A    between atoms: _233  and  _235
REMARK   92  A    between atoms: _235  and  _236
REMARK   93  A    between atoms: _235  and  _238
REMARK   94  A    between atoms: _238  and  _239
REMARK   95  A    between atoms: _239  and  _240
REMARK   96  A    between atoms: _245  and  _247
REMARK   97  A    between atoms: _247  and  _248
REMARK   98  A    between atoms: _247  and  _250
REMARK   99  A    between atoms: _250  and  _251
REMARK  100  A    between atoms: _254  and  _256
REMARK  101  A    between atoms: _256  and  _257
REMARK  102  A    between atoms: _256  and  _259
REMARK  103  A    between atoms: _259  and  _260
REMARK  104  A    between atoms: _266  and  _268
REMARK  105  A    between atoms: _268  and  _269
REMARK  106  A    between atoms: _268  and  _271
REMARK  107  A    between atoms: _271  and  _272
REMARK  108  A    between atoms: _275  and  _277
REMARK  109  A    between atoms: _277  and  _278
REMARK  110  A    between atoms: _277  and  _280
REMARK  111  A    between atoms: _280  and  _281
REMARK  112  A    between atoms: _281  and  _282
REMARK  113  A    between atoms: _284  and  _286
REMARK  114  A    between atoms: _286  and  _287
REMARK  115  A    between atoms: _286  and  _289
REMARK  116  A    between atoms: _289  and  _290
REMARK  117  A    between atoms: _300  and  _302
REMARK  118  A    between atoms: _302  and  _303
REMARK  119  A    between atoms: _302  and  _305
REMARK  120  A    between atoms: _305  and  _306
REMARK  121  A    between atoms: _306  and  _307
REMARK  122  A    between atoms: _311  and  _312
REMARK  123  A    between atoms: _317  and  _319
REMARK  124  A    between atoms: _319  and  _320
REMARK  125  A    between atoms: _319  and  _322
REMARK  126  A    between atoms: _322  and  _323
REMARK  127  A    between atoms: _326  and  _328
REMARK  128  A    between atoms: _328  and  _329
REMARK  129  A    between atoms: _328  and  _331
REMARK  130  A    between atoms: _331  and  _332
REMARK  131  A    between atoms: _332  and  _333
REMARK  132  A    between atoms: _333  and  _334
REMARK  133  A    between atoms: _343  and  _345
REMARK  134  A    between atoms: _345  and  _346
REMARK  135  A    between atoms: _345  and  _348
REMARK  136  A    between atoms: _348  and  _349
REMARK  137  A    between atoms: _352  and  _354
REMARK  138  A    between atoms: _354  and  _355
REMARK  139  A    between atoms: _358  and  _360
REMARK  140  A    between atoms: _360  and  _361
REMARK  141  A    between atoms: _360  and  _363
REMARK  142  A    between atoms: _363  and  _364
REMARK  143  A    between atoms: _369  and  _371
REMARK  144  A    between atoms: _371  and  _372
REMARK  145  A    between atoms: _375  and  _377
REMARK  146  A    between atoms: _377  and  _378
REMARK  147  A    between atoms: _377  and  _380
REMARK  148  A    between atoms: _380  and  _381
REMARK  149  A    between atoms: _386  and  _387
REMARK  150  A    between atoms: _389  and  _391
REMARK  151  A    between atoms: _391  and  _392
REMARK  152  A    between atoms: _391  and  _394
REMARK  153  A    between atoms: _394  and  _395
REMARK  154  A    between atoms: _397  and  _399
REMARK  155  A    between atoms: _399  and  _400
REMARK  156  A    between atoms: _399  and  _402
REMARK  157  A    between atoms: _402  and  _403
REMARK  158  A    between atoms: _409  and  _411
REMARK  159  A    between atoms: _411  and  _412
REMARK  160  A    between atoms: _411  and  _414
REMARK  161  A    between atoms: _414  and  _415
REMARK  162  A    between atoms: _421  and  _423
REMARK  163  A    between atoms: _423  and  _424
REMARK  164  A    between atoms: _423  and  _426
REMARK  165  A    between atoms: _426  and  _427
REMARK  166  A    between atoms: _432  and  _434
REMARK  167  A    between atoms: _434  and  _435
REMARK  168  A    between atoms: _437  and  _439
REMARK  169  A    between atoms: _439  and  _440
REMARK  170  A    between atoms: _439  and  _442
REMARK  171  A    between atoms: _445  and  _447
REMARK  172  A    between atoms: _447  and  _448
REMARK  173  A    between atoms: _447  and  _450
REMARK  174  A    between atoms: _450  and  _451
REMARK  175  A    between atoms: _461  and  _463
REMARK  176  A    between atoms: _463  and  _464
REMARK  177  A    between atoms: _467  and  _469
REMARK  178  A    between atoms: _469  and  _470
REMARK  179  A    between atoms: _469  and  _472
REMARK  180  A    between atoms: _472  and  _473
REMARK  181  A    between atoms: _473  and  _474
REMARK  182  A    between atoms: _477  and  _479
REMARK  183  A    between atoms: _479  and  _480
REMARK  184  A    between atoms: _479  and  _482
REMARK  185  A    between atoms: _482  and  _483
REMARK  186  A    between atoms: _485  and  _487
REMARK  187  A    between atoms: _487  and  _488
REMARK  188  A    between atoms: _490  and  _492
REMARK  189  A    between atoms: _492  and  _493
REMARK  190  A    between atoms: _495  and  _497
REMARK  191  A    between atoms: _497  and  _498
REMARK  192  A    between atoms: _497  and  _500
REMARK  193  A    between atoms: _500  and  _501
REMARK  194  A    between atoms: _504  and  _506
REMARK  195  A    between atoms: _506  and  _507
REMARK  196  A    between atoms: _506  and  _509
REMARK  197  A    between atoms: _512  and  _514
REMARK  198  A    between atoms: _514  and  _515
REMARK  199  A    between atoms: _517  and  _519
REMARK  200  A    between atoms: _519  and  _520
REMARK  201  A    between atoms: _523  and  _525
REMARK  202  A    between atoms: _525  and  _526
REMARK  203  A    between atoms: _525  and  _528
REMARK  204  A    between atoms: _528  and  _529
REMARK  205  A    between atoms: _535  and  _536
REMARK  206  A    between atoms: _541  and  _543
REMARK  207  A    between atoms: _543  and  _544
REMARK  208  A    between atoms: _543  and  _546
REMARK  209  A    between atoms: _546  and  _547
REMARK  210  A    between atoms: _550  and  _552
REMARK  211  A    between atoms: _552  and  _553
REMARK  212  A    between atoms: _552  and  _555
REMARK  213  A    between atoms: _555  and  _556
REMARK  214  A    between atoms: _558  and  _560
REMARK  215  A    between atoms: _560  and  _561
REMARK  216  A    between atoms: _560  and  _563
REMARK  217  A    between atoms: _563  and  _564
REMARK  218  A    between atoms: _567  and  _569
REMARK  219  A    between atoms: _569  and  _570
REMARK  220  A    between atoms: _569  and  _572
REMARK  221  A    between atoms: _572  and  _573
REMARK  222  A    between atoms: _578  and  _580
REMARK  223  A    between atoms: _580  and  _581
REMARK  224  A    between atoms: _580  and  _583
REMARK  225  A    between atoms: _583  and  _584
REMARK                            x       y       z     vdW  Elec       q    Type
REMARK                         _______ _______ _______ _____ _____    ______ ____
ROOT
ATOM      1  O   HOH     1      14.646  -0.372  42.390  0.00  0.00    +0.000 OA
ENDROOT
TORSDOF 0
REMARK  Name = ../refined-set-2016/2w7y/2w7y_pocket.pdb
REMARK  225 active torsions:
REMARK  status: ('A' for Active; 'I' for Inactive)
REMARK    1  A    between atoms: _1  and  _3
REMARK    2  A    between atoms: _3  and  _4
REMARK    3  A    between atoms: _3  and  _6
REMARK    4  A    between atoms: _6  and  _7
REMARK    5  A    between atoms: _12  and  _13
REMARK    6  A    between atoms: _15  and  _17
REMARK    7  A    between atoms: _17  and  _18
REMARK    8  A    between atoms: _17  and  _20
REMARK    9  A    between atoms: _20  and  _21
REMARK   10  A    between atoms: _26  and  _28
REMARK   11  A    between atoms: _28  and  _29
REMARK   12  A    between atoms: _31  and  _33
REMARK   13  A    between atoms: _33  and  _34
REMARK   14  A    between atoms: _33  and  _36
REMARK   15  A    between atoms: _36  and  _37
REMARK   16  A    between atoms: _42  and  _43
REMARK   17  A    between atoms: _45  and  _47
REMARK   18  A    between atoms: _47  and  _48
REMARK   19  A    between atoms: _47  and  _50
REMARK   20  A    between atoms: _50  and  _51
REMARK   21  A    between atoms: _56  and  _58
REMARK   22  A    between atoms: _58  and  _59
REMARK   23  A    between atoms: _58  and  _61
REMARK   24  A    between atoms: _61  and  _62
REMARK   25  A    between atoms: _67  and  _69
REMARK   26  A    between atoms: _69  and  _70
REMARK   27  A    between atoms: _69  and  _72
REMARK   28  A    between atoms: _72  and  _73
REMARK   29  A    between atoms: _83  and  _85
REMARK   30  A    between atoms: _85  and  _86
REMARK   31  A    between atoms: _85  and  _88
REMARK   32  A    between atoms: _91  and  _93
REMARK   33  A    between atoms: _93  and  _94
REMARK   34  A    between atoms: _97  and  _99
REMARK   35  A    between atoms: _99  and  _100
REMARK   36  A    between atoms: _99  and  _102
REMARK   37  A    between atoms: _102  and  _103
REMARK   38  A    between atoms: _103  and  _104
REMARK   39  A    between atoms: _106  and  _108
REMARK   40  A    between atoms: _108  and  _109
REMARK   41  A    between atoms: _108  and  _111
REMARK   42  A    between atoms: _111  and  _112
REMARK   43  A    between atoms: _117  and  _118
REMARK   44  A    between atoms: _120  and  _122
REMARK   45  A    between atoms: _122  and  _123
REMARK   46  A    between atoms: _122  and  _125
REMARK   47  A    between atoms: _128  and  _130
REMARK   48  A    between atoms: _130  and  _131
REMARK   49  A    between atoms: _130  and  _133
REMARK   50  A    between atoms: _133  and  _134
REMARK   51  A    between atoms: _139  and  _141
REMARK   52  A    between atoms: _141  and  _142
REMARK   53  A    between atoms: _144  and  _146
REMARK   54  A    between atoms: _146  and  _147
REMARK   55  A    between atoms: _146  and  _149
REMARK   56  A    between atoms: _149  and  _150
REMARK   57  A    between atoms: _153  and  _155
REMARK   58  A    between atoms: _155  and  _156
REMARK   59  A    between atoms: _155  and  _158
REMARK   60  A    between atoms: _158  and  _159
REMARK   61  A    between atoms: _159  and  _160
REMARK   62  A    between atoms: _160  and  _161
REMARK   63  A    between atoms: _161  and  _162
REMARK   64  A    between atoms: _166  and  _168
REMARK   65  A    between atoms: _168  and  _169
REMARK   66  A    between atoms: _168  and  _171
REMARK   67  A    between atoms: _171  and  _172
REMARK   68  A    between atoms: _175  and  _177
REMARK   69  A    between atoms: _177  and  _178
REMARK   70  A    between atoms: _177  and  _180
REMARK   71  A    between atoms: _180  and  _181
REMARK   72  A    between atoms: _184  and  _186
REMARK   73  A    between atoms: _186  and  _187
REMARK   74  A    between atoms: _190  and  _192
REMARK   75  A    between atoms: _192  and  _193
REMARK   76  A    between atoms: _195  and  _197
REMARK   77  A    between atoms: _197  and  _198
REMARK   78  A    between atoms: _197  and  _200
REMARK   79  A    between atoms: _200  and  _201
REMARK   80  A    between atoms: _206  and  _208
REMARK   81  A    between atoms: _208  and  _209
REMARK   82  A    between atoms: _212  and  _214
REMARK   83  A    between atoms: _214  and  _215
REMARK   84  A    between atoms: _214  and  _217
REMARK   85  A    between atoms: _217  and  _218
REMARK   86  A    between atoms: _223  and  _225
REMARK   87  A    between atoms: _225  and  _226
REMARK   88  A    between atoms: _225  and  _228
REMARK   89  A    between atoms: _228  and  _229
REMARK   90  A    between atoms: _229  and  _230
REMARK   91  A    between atoms: _233  and  _235
REMARK   92  A    between atoms: _235  and  _236
REMARK   93  A    between atoms: _235  and  _238
REMARK   94  A    between atoms: _238  and  _239
REMARK   95  A    between atoms: _239  and  _240
REMARK   96  A    between atoms: _245  and  _247
REMARK   97  A    between atoms: _247  and  _248
REMARK   98  A    between atoms: _247  and  _250
REMARK   99  A    between atoms: _250  and  _251
REMARK  100  A    between atoms: _254  and  _256
REMARK  101  A    between atoms: _256  and  _257
REMARK  102  A    between atoms: _256  and  _259
REMARK  103  A    between atoms: _259  and  _260
REMARK  104  A    between atoms: _266  and  _268
REMARK  105  A    between atoms: _268  and  _269
REMARK  106  A    between atoms: _268  and  _271
REMARK  107  A    between atoms: _271  and  _272
REMARK  108  A    between atoms: _275  and  _277
REMARK  109  A    between atoms: _277  and  _278
REMARK  110  A    between atoms: _277  and  _280
REMARK  111  A    between atoms: _280  and  _281
REMARK  112  A    between atoms: _281  and  _282
REMARK  113  A    between atoms: _284  and  _286
REMARK  114  A    between atoms: _286  and  _287
REMARK  115  A    between atoms: _286  and  _289
REMARK  116  A    between atoms: _289  and  _290
REMARK  117  A    between atoms: _300  and  _302
REMARK  118  A    between atoms: _302  and  _303
REMARK  119  A    between atoms: _302  and  _305
REMARK  120  A    between atoms: _305  and  _306
REMARK  121  A    between atoms: _306  and  _307
REMARK  122  A    between atoms: _311  and  _312
REMARK  123  A    between atoms: _317  and  _319
REMARK  124  A    between atoms: _319  and  _320
REMARK  125  A    between atoms: _319  and  _322
REMARK  126  A    between atoms: _322  and  _323
REMARK  127  A    between atoms: _326  and  _328
REMARK  128  A    between atoms: _328  and  _329
REMARK  129  A    between atoms: _328  and  _331
REMARK  130  A    between atoms: _331  and  _332
REMARK  131  A    between atoms: _332  and  _333
REMARK  132  A    between atoms: _333  and  _334
REMARK  133  A    between atoms: _343  and  _345
REMARK  134  A    between atoms: _345  and  _346
REMARK  135  A    between atoms: _345  and  _348
REMARK  136  A    between atoms: _348  and  _349
REMARK  137  A    between atoms: _352  and  _354
REMARK  138  A    between atoms: _354  and  _355
REMARK  139  A    between atoms: _358  and  _360
REMARK  140  A    between atoms: _360  and  _361
REMARK  141  A    between atoms: _360  and  _363
REMARK  142  A    between atoms: _363  and  _364
REMARK  143  A    between atoms: _369  and  _371
REMARK  144  A    between atoms: _371  and  _372
REMARK  145  A    between atoms: _375  and  _377
REMARK  146  A    between atoms: _377  and  _378
REMARK  147  A    between atoms: _377  and  _380
REMARK  148  A    between atoms: _380  and  _381
REMARK  149  A    between atoms: _386  and  _387
REMARK  150  A    between atoms: _389  and  _391
REMARK  151  A    between atoms: _391  and  _392
REMARK  152  A    between atoms: _391  and  _394
REMARK  153  A    between atoms: _394  and  _395
REMARK  154  A    between atoms: _397  and  _399
REMARK  155  A    between atoms: _399  and  _400
REMARK  156  A    between atoms: _399  and  _402
REMARK  157  A    between atoms: _402  and  _403
REMARK  158  A    between atoms: _409  and  _411
REMARK  159  A    between atoms: _411  and  _412
REMARK  160  A    between atoms: _411  and  _414
REMARK  161  A    between atoms: _414  and  _415
REMARK  162  A    between atoms: _421  and  _423
REMARK  163  A    between atoms: _423  and  _424
REMARK  164  A    between atoms: _423  and  _426
REMARK  165  A    between atoms: _426  and  _427
REMARK  166  A    between atoms: _432  and  _434
REMARK  167  A    between atoms: _434  and  _435
REMARK  168  A    between atoms: _437  and  _439
REMARK  169  A    between atoms: _439  and  _440
REMARK  170  A    between atoms: _439  and  _442
REMARK  171  A    between atoms: _445  and  _447
REMARK  172  A    between atoms: _447  and  _448
REMARK  173  A    between atoms: _447  and  _450
REMARK  174  A    between atoms: _450  and  _451
REMARK  175  A    between atoms: _461  and  _463
REMARK  176  A    between atoms: _463  and  _464
REMARK  177  A    between atoms: _467  and  _469
REMARK  178  A    between atoms: _469  and  _470
REMARK  179  A    between atoms: _469  and  _472
REMARK  180  A    between atoms: _472  and  _473
REMARK  181  A    between atoms: _473  and  _474
REMARK  182  A    between atoms: _477  and  _479
REMARK  183  A    between atoms: _479  and  _480
REMARK  184  A    between atoms: _479  and  _482
REMARK  185  A    between atoms: _482  and  _483
REMARK  186  A    between atoms: _485  and  _487
REMARK  187  A    between atoms: _487  and  _488
REMARK  188  A    between atoms: _490  and  _492
REMARK  189  A    between atoms: _492  and  _493
REMARK  190  A    between atoms: _495  and  _497
REMARK  191  A    between atoms: _497  and  _498
REMARK  192  A    between atoms: _497  and  _500
REMARK  193  A    between atoms: _500  and  _501
REMARK  194  A    between atoms: _504  and  _506
REMARK  195  A    between atoms: _506  and  _507
REMARK  196  A    between atoms: _506  and  _509
REMARK  197  A    between atoms: _512  and  _514
REMARK  198  A    between atoms: _514  and  _515
REMARK  199  A    between atoms: _517  and  _519
REMARK  200  A    between atoms: _519  and  _520
REMARK  201  A    between atoms: _523  and  _525
REMARK  202  A    between atoms: _525  and  _526
REMARK  203  A    between atoms: _525  and  _528
REMARK  204  A    between atoms: _528  and  _529
REMARK  205  A    between atoms: _535  and  _536
REMARK  206  A    between atoms: _541  and  _543
REMARK  207  A    between atoms: _543  and  _544
REMARK  208  A    between atoms: _543  and  _546
REMARK  209  A    between atoms: _546  and  _547
REMARK  210  A    between atoms: _550  and  _552
REMARK  211  A    between atoms: _552  and  _553
REMARK  212  A    between atoms: _552  and  _555
REMARK  213  A    between atoms: _555  and  _556
REMARK  214  A    between atoms: _558  and  _560
REMARK  215  A    between atoms: _560  and  _561
REMARK  216  A    between atoms: _560  and  _563
REMARK  217  A    between atoms: _563  and  _564
REMARK  218  A    between atoms: _567  and  _569
REMARK  219  A    between atoms: _569  and  _570
REMARK  220  A    between atoms: _569  and  _572
REMARK  221  A    between atoms: _572  and  _573
REMARK  222  A    between atoms: _578  and  _580
REMARK  223  A    between atoms: _580  and  _581
REMARK  224  A    between atoms: _580  and  _583
REMARK  225  A    between atoms: _583  and  _584
REMARK                            x       y       z     vdW  Elec       q    Type
REMARK                         _______ _______ _______ _____ _____    ______ ____
ROOT
ATOM      1  O   HOH     1      18.968  -6.652  51.440  0.00  0.00    +0.000 OA
ENDROOT
TORSDOF 0
REMARK  Name = ../refined-set-2016/2w7y/2w7y_pocket.pdb
REMARK  225 active torsions:
REMARK  status: ('A' for Active; 'I' for Inactive)
REMARK    1  A    between atoms: _1  and  _3
REMARK    2  A    between atoms: _3  and  _4
REMARK    3  A    between atoms: _3  and  _6
REMARK    4  A    between atoms: _6  and  _7
REMARK    5  A    between atoms: _12  and  _13
REMARK    6  A    between atoms: _15  and  _17
REMARK    7  A    between atoms: _17  and  _18
REMARK    8  A    between atoms: _17  and  _20
REMARK    9  A    between atoms: _20  and  _21
REMARK   10  A    between atoms: _26  and  _28
REMARK   11  A    between atoms: _28  and  _29
REMARK   12  A    between atoms: _31  and  _33
REMARK   13  A    between atoms: _33  and  _34
REMARK   14  A    between atoms: _33  and  _36
REMARK   15  A    between atoms: _36  and  _37
REMARK   16  A    between atoms: _42  and  _43
REMARK   17  A    between atoms: _45  and  _47
REMARK   18  A    between atoms: _47  and  _48
REMARK   19  A    between atoms: _47  and  _50
REMARK   20  A    between atoms: _50  and  _51
REMARK   21  A    between atoms: _56  and  _58
REMARK   22  A    between atoms: _58  and  _59
REMARK   23  A    between atoms: _58  and  _61
REMARK   24  A    between atoms: _61  and  _62
REMARK   25  A    between atoms: _67  and  _69
REMARK   26  A    between atoms: _69  and  _70
REMARK   27  A    between atoms: _69  and  _72
REMARK   28  A    between atoms: _72  and  _73
REMARK   29  A    between atoms: _83  and  _85
REMARK   30  A    between atoms: _85  and  _86
REMARK   31  A    between atoms: _85  and  _88
REMARK   32  A    between atoms: _91  and  _93
REMARK   33  A    between atoms: _93  and  _94
REMARK   34  A    between atoms: _97  and  _99
REMARK   35  A    between atoms: _99  and  _100
REMARK   36  A    between atoms: _99  and  _102
REMARK   37  A    between atoms: _102  and  _103
REMARK   38  A    between atoms: _103  and  _104
REMARK   39  A    between atoms: _106  and  _108
REMARK   40  A    between atoms: _108  and  _109
REMARK   41  A    between atoms: _108  and  _111
REMARK   42  A    between atoms: _111  and  _112
REMARK   43  A    between atoms: _117  and  _118
REMARK   44  A    between atoms: _120  and  _122
REMARK   45  A    between atoms: _122  and  _123
REMARK   46  A    between atoms: _122  and  _125
REMARK   47  A    between atoms: _128  and  _130
REMARK   48  A    between atoms: _130  and  _131
REMARK   49  A    between atoms: _130  and  _133
REMARK   50  A    between atoms: _133  and  _134
REMARK   51  A    between atoms: _139  and  _141
REMARK   52  A    between atoms: _141  and  _142
REMARK   53  A    between atoms: _144  and  _146
REMARK   54  A    between atoms: _146  and  _147
REMARK   55  A    between atoms: _146  and  _149
REMARK   56  A    between atoms: _149  and  _150
REMARK   57  A    between atoms: _153  and  _155
REMARK   58  A    between atoms: _155  and  _156
REMARK   59  A    between atoms: _155  and  _158
REMARK   60  A    between atoms: _158  and  _159
REMARK   61  A    between atoms: _159  and  _160
REMARK   62  A    between atoms: _160  and  _161
REMARK   63  A    between atoms: _161  and  _162
REMARK   64  A    between atoms: _166  and  _168
REMARK   65  A    between atoms: _168  and  _169
REMARK   66  A    between atoms: _168  and  _171
REMARK   67  A    between atoms: _171  and  _172
REMARK   68  A    between atoms: _175  and  _177
REMARK   69  A    between atoms: _177  and  _178
REMARK   70  A    between atoms: _177  and  _180
REMARK   71  A    between atoms: _180  and  _181
REMARK   72  A    between atoms: _184  and  _186
REMARK   73  A    between atoms: _186  and  _187
REMARK   74  A    between atoms: _190  and  _192
REMARK   75  A    between atoms: _192  and  _193
REMARK   76  A    between atoms: _195  and  _197
REMARK   77  A    between atoms: _197  and  _198
REMARK   78  A    between atoms: _197  and  _200
REMARK   79  A    between atoms: _200  and  _201
REMARK   80  A    between atoms: _206  and  _208
REMARK   81  A    between atoms: _208  and  _209
REMARK   82  A    between atoms: _212  and  _214
REMARK   83  A    between atoms: _214  and  _215
REMARK   84  A    between atoms: _214  and  _217
REMARK   85  A    between atoms: _217  and  _218
REMARK   86  A    between atoms: _223  and  _225
REMARK   87  A    between atoms: _225  and  _226
REMARK   88  A    between atoms: _225  and  _228
REMARK   89  A    between atoms: _228  and  _229
REMARK   90  A    between atoms: _229  and  _230
REMARK   91  A    between atoms: _233  and  _235
REMARK   92  A    between atoms: _235  and  _236
REMARK   93  A    between atoms: _235  and  _238
REMARK   94  A    between atoms: _238  and  _239
REMARK   95  A    between atoms: _239  and  _240
REMARK   96  A    between atoms: _245  and  _247
REMARK   97  A    between atoms: _247  and  _248
REMARK   98  A    between atoms: _247  and  _250
REMARK   99  A    between atoms: _250  and  _251
REMARK  100  A    between atoms: _254  and  _256
REMARK  101  A    between atoms: _256  and  _257
REMARK  102  A    between atoms: _256  and  _259
REMARK  103  A    between atoms: _259  and  _260
REMARK  104  A    between atoms: _266  and  _268
REMARK  105  A    between atoms: _268  and  _269
REMARK  106  A    between atoms: _268  and  _271
REMARK  107  A    between atoms: _271  and  _272
REMARK  108  A    between atoms: _275  and  _277
REMARK  109  A    between atoms: _277  and  _278
REMARK  110  A    between atoms: _277  and  _280
REMARK  111  A    between atoms: _280  and  _281
REMARK  112  A    between atoms: _281  and  _282
REMARK  113  A    between atoms: _284  and  _286
REMARK  114  A    between atoms: _286  and  _287
REMARK  115  A    between atoms: _286  and  _289
REMARK  116  A    between atoms: _289  and  _290
REMARK  117  A    between atoms: _300  and  _302
REMARK  118  A    between atoms: _302  and  _303
REMARK  119  A    between atoms: _302  and  _305
REMARK  120  A    between atoms: _305  and  _306
REMARK  121  A    between atoms: _306  and  _307
REMARK  122  A    between atoms: _311  and  _312
REMARK  123  A    between atoms: _317  and  _319
REMARK  124  A    between atoms: _319  and  _320
REMARK  125  A    between atoms: _319  and  _322
REMARK  126  A    between atoms: _322  and  _323
REMARK  127  A    between atoms: _326  and  _328
REMARK  128  A    between atoms: _328  and  _329
REMARK  129  A    between atoms: _328  and  _331
REMARK  130  A    between atoms: _331  and  _332
REMARK  131  A    between atoms: _332  and  _333
REMARK  132  A    between atoms: _333  and  _334
REMARK  133  A    between atoms: _343  and  _345
REMARK  134  A    between atoms: _345  and  _346
REMARK  135  A    between atoms: _345  and  _348
REMARK  136  A    between atoms: _348  and  _349
REMARK  137  A    between atoms: _352  and  _354
REMARK  138  A    between atoms: _354  and  _355
REMARK  139  A    between atoms: _358  and  _360
REMARK  140  A    between atoms: _360  and  _361
REMARK  141  A    between atoms: _360  and  _363
REMARK  142  A    between atoms: _363  and  _364
REMARK  143  A    between atoms: _369  and  _371
REMARK  144  A    between atoms: _371  and  _372
REMARK  145  A    between atoms: _375  and  _377
REMARK  146  A    between atoms: _377  and  _378
REMARK  147  A    between atoms: _377  and  _380
REMARK  148  A    between atoms: _380  and  _381
REMARK  149  A    between atoms: _386  and  _387
REMARK  150  A    between atoms: _389  and  _391
REMARK  151  A    between atoms: _391  and  _392
REMARK  152  A    between atoms: _391  and  _394
REMARK  153  A    between atoms: _394  and  _395
REMARK  154  A    between atoms: _397  and  _399
REMARK  155  A    between atoms: _399  and  _400
REMARK  156  A    between atoms: _399  and  _402
REMARK  157  A    between atoms: _402  and  _403
REMARK  158  A    between atoms: _409  and  _411
REMARK  159  A    between atoms: _411  and  _412
REMARK  160  A    between atoms: _411  and  _414
REMARK  161  A    between atoms: _414  and  _415
REMARK  162  A    between atoms: _421  and  _423
REMARK  163  A    between atoms: _423  and  _424
REMARK  164  A    between atoms: _423  and  _426
REMARK  165  A    between atoms: _426  and  _427
REMARK  166  A    between atoms: _432  and  _434
REMARK  167  A    between atoms: _434  and  _435
REMARK  168  A    between atoms: _437  and  _439
REMARK  169  A    between atoms: _439  and  _440
REMARK  170  A    between atoms: _439  and  _442
REMARK  171  A    between atoms: _445  and  _447
REMARK  172  A    between atoms: _447  and  _448
REMARK  173  A    between atoms: _447  and  _450
REMARK  174  A    between atoms: _450  and  _451
REMARK  175  A    between atoms: _461  and  _463
REMARK  176  A    between atoms: _463  and  _464
REMARK  177  A    between atoms: _467  and  _469
REMARK  178  A    between atoms: _469  and  _470
REMARK  179  A    between atoms: _469  and  _472
REMARK  180  A    between atoms: _472  and  _473
REMARK  181  A    between atoms: _473  and  _474
REMARK  182  A    between atoms: _477  and  _479
REMARK  183  A    between atoms: _479  and  _480
REMARK  184  A    between atoms: _479  and  _482
REMARK  185  A    between atoms: _482  and  _483
REMARK  186  A    between atoms: _485  and  _487
REMARK  187  A    between atoms: _487  and  _488
REMARK  188  A    between atoms: _490  and  _492
REMARK  189  A    between atoms: _492  and  _493
REMARK  190  A    between atoms: _495  and  _497
REMARK  191  A    between atoms: _497  and  _498
REMARK  192  A    between atoms: _497  and  _500
REMARK  193  A    between atoms: _500  and  _501
REMARK  194  A    between atoms: _504  and  _506
REMARK  195  A    between atoms: _506  and  _507
REMARK  196  A    between atoms: _506  and  _509
REMARK  197  A    between atoms: _512  and  _514
REMARK  198  A    between atoms: _514  and  _515
REMARK  199  A    between atoms: _517  and  _519
REMARK  200  A    between atoms: _519  and  _520
REMARK  201  A    between atoms: _523  and  _525
REMARK  202  A    between atoms: _525  and  _526
REMARK  203  A    between atoms: _525  and  _528
REMARK  204  A    between atoms: _528  and  _529
REMARK  205  A    between atoms: _535  and  _536
REMARK  206  A    between atoms: _541  and  _543
REMARK  207  A    between atoms: _543  and  _544
REMARK  208  A    between atoms: _543  and  _546
REMARK  209  A    between atoms: _546  and  _547
REMARK  210  A    between atoms: _550  and  _552
REMARK  211  A    between atoms: _552  and  _553
REMARK  212  A    between atoms: _552  and  _555
REMARK  213  A    between atoms: _555  and  _556
REMARK  214  A    between atoms: _558  and  _560
REMARK  215  A    between atoms: _560  and  _561
REMARK  216  A    between atoms: _560  and  _563
REMARK  217  A    between atoms: _563  and  _564
REMARK  218  A    between atoms: _567  and  _569
REMARK  219  A    between atoms: _569  and  _570
REMARK  220  A    between atoms: _569  and  _572
REMARK  221  A    between atoms: _572  and  _573
REMARK  222  A    between atoms: _578  and  _580
REMARK  223  A    between atoms: _580  and  _581
REMARK  224  A    between atoms: _580  and  _583
REMARK  225  A    between atoms: _583  and  _584
REMARK                            x       y       z     vdW  Elec       q    Type
REMARK                         _______ _______ _______ _____ _____    ______ ____
ROOT
ATOM      1  O   HOH     1      14.742  -6.049  53.461  0.00  0.00    +0.000 OA
ENDROOT
TORSDOF 0
REMARK  Name = ../refined-set-2016/2w7y/2w7y_pocket.pdb
REMARK  225 active torsions:
REMARK  status: ('A' for Active; 'I' for Inactive)
REMARK    1  A    between atoms: _1  and  _3
REMARK    2  A    between atoms: _3  and  _4
REMARK    3  A    between atoms: _3  and  _6
REMARK    4  A    between atoms: _6  and  _7
REMARK    5  A    between atoms: _12  and  _13
REMARK    6  A    between atoms: _15  and  _17
REMARK    7  A    between atoms: _17  and  _18
REMARK    8  A    between atoms: _17  and  _20
REMARK    9  A    between atoms: _20  and  _21
REMARK   10  A    between atoms: _26  and  _28
REMARK   11  A    between atoms: _28  and  _29
REMARK   12  A    between atoms: _31  and  _33
REMARK   13  A    between atoms: _33  and  _34
REMARK   14  A    between atoms: _33  and  _36
REMARK   15  A    between atoms: _36  and  _37
REMARK   16  A    between atoms: _42  and  _43
REMARK   17  A    between atoms: _45  and  _47
REMARK   18  A    between atoms: _47  and  _48
REMARK   19  A    between atoms: _47  and  _50
REMARK   20  A    between atoms: _50  and  _51
REMARK   21  A    between atoms: _56  and  _58
REMARK   22  A    between atoms: _58  and  _59
REMARK   23  A    between atoms: _58  and  _61
REMARK   24  A    between atoms: _61  and  _62
REMARK   25  A    between atoms: _67  and  _69
REMARK   26  A    between atoms: _69  and  _70
REMARK   27  A    between atoms: _69  and  _72
REMARK   28  A    between atoms: _72  and  _73
REMARK   29  A    between atoms: _83  and  _85
REMARK   30  A    between atoms: _85  and  _86
REMARK   31  A    between atoms: _85  and  _88
REMARK   32  A    between atoms: _91  and  _93
REMARK   33  A    between atoms: _93  and  _94
REMARK   34  A    between atoms: _97  and  _99
REMARK   35  A    between atoms: _99  and  _100
REMARK   36  A    between atoms: _99  and  _102
REMARK   37  A    between atoms: _102  and  _103
REMARK   38  A    between atoms: _103  and  _104
REMARK   39  A    between atoms: _106  and  _108
REMARK   40  A    between atoms: _108  and  _109
REMARK   41  A    between atoms: _108  and  _111
REMARK   42  A    between atoms: _111  and  _112
REMARK   43  A    between atoms: _117  and  _118
REMARK   44  A    between atoms: _120  and  _122
REMARK   45  A    between atoms: _122  and  _123
REMARK   46  A    between atoms: _122  and  _125
REMARK   47  A    between atoms: _128  and  _130
REMARK   48  A    between atoms: _130  and  _131
REMARK   49  A    between atoms: _130  and  _133
REMARK   50  A    between atoms: _133  and  _134
REMARK   51  A    between atoms: _139  and  _141
REMARK   52  A    between atoms: _141  and  _142
REMARK   53  A    between atoms: _144  and  _146
REMARK   54  A    between atoms: _146  and  _147
REMARK   55  A    between atoms: _146  and  _149
REMARK   56  A    between atoms: _149  and  _150
REMARK   57  A    between atoms: _153  and  _155
REMARK   58  A    between atoms: _155  and  _156
REMARK   59  A    between atoms: _155  and  _158
REMARK   60  A    between atoms: _158  and  _159
REMARK   61  A    between atoms: _159  and  _160
REMARK   62  A    between atoms: _160  and  _161
REMARK   63  A    between atoms: _161  and  _162
REMARK   64  A    between atoms: _166  and  _168
REMARK   65  A    between atoms: _168  and  _169
REMARK   66  A    between atoms: _168  and  _171
REMARK   67  A    between atoms: _171  and  _172
REMARK   68  A    between atoms: _175  and  _177
REMARK   69  A    between atoms: _177  and  _178
REMARK   70  A    between atoms: _177  and  _180
REMARK   71  A    between atoms: _180  and  _181
REMARK   72  A    between atoms: _184  and  _186
REMARK   73  A    between atoms: _186  and  _187
REMARK   74  A    between atoms: _190  and  _192
REMARK   75  A    between atoms: _192  and  _193
REMARK   76  A    between atoms: _195  and  _197
REMARK   77  A    between atoms: _197  and  _198
REMARK   78  A    between atoms: _197  and  _200
REMARK   79  A    between atoms: _200  and  _201
REMARK   80  A    between atoms: _206  and  _208
REMARK   81  A    between atoms: _208  and  _209
REMARK   82  A    between atoms: _212  and  _214
REMARK   83  A    between atoms: _214  and  _215
REMARK   84  A    between atoms: _214  and  _217
REMARK   85  A    between atoms: _217  and  _218
REMARK   86  A    between atoms: _223  and  _225
REMARK   87  A    between atoms: _225  and  _226
REMARK   88  A    between atoms: _225  and  _228
REMARK   89  A    between atoms: _228  and  _229
REMARK   90  A    between atoms: _229  and  _230
REMARK   91  A    between atoms: _233  and  _235
REMARK   92  A    between atoms: _235  and  _236
REMARK   93  A    between atoms: _235  and  _238
REMARK   94  A    between atoms: _238  and  _239
REMARK   95  A    between atoms: _239  and  _240
REMARK   96  A    between atoms: _245  and  _247
REMARK   97  A    between atoms: _247  and  _248
REMARK   98  A    between atoms: _247  and  _250
REMARK   99  A    between atoms: _250  and  _251
REMARK  100  A    between atoms: _254  and  _256
REMARK  101  A    between atoms: _256  and  _257
REMARK  102  A    between atoms: _256  and  _259
REMARK  103  A    between atoms: _259  and  _260
REMARK  104  A    between atoms: _266  and  _268
REMARK  105  A    between atoms: _268  and  _269
REMARK  106  A    between atoms: _268  and  _271
REMARK  107  A    between atoms: _271  and  _272
REMARK  108  A    between atoms: _275  and  _277
REMARK  109  A    between atoms: _277  and  _278
REMARK  110  A    between atoms: _277  and  _280
REMARK  111  A    between atoms: _280  and  _281
REMARK  112  A    between atoms: _281  and  _282
REMARK  113  A    between atoms: _284  and  _286
REMARK  114  A    between atoms: _286  and  _287
REMARK  115  A    between atoms: _286  and  _289
REMARK  116  A    between atoms: _289  and  _290
REMARK  117  A    between atoms: _300  and  _302
REMARK  118  A    between atoms: _302  and  _303
REMARK  119  A    between atoms: _302  and  _305
REMARK  120  A    between atoms: _305  and  _306
REMARK  121  A    between atoms: _306  and  _307
REMARK  122  A    between atoms: _311  and  _312
REMARK  123  A    between atoms: _317  and  _319
REMARK  124  A    between atoms: _319  and  _320
REMARK  125  A    between atoms: _319  and  _322
REMARK  126  A    between atoms: _322  and  _323
REMARK  127  A    between atoms: _326  and  _328
REMARK  128  A    between atoms: _328  and  _329
REMARK  129  A    between atoms: _328  and  _331
REMARK  130  A    between atoms: _331  and  _332
REMARK  131  A    between atoms: _332  and  _333
REMARK  132  A    between atoms: _333  and  _334
REMARK  133  A    between atoms: _343  and  _345
REMARK  134  A    between atoms: _345  and  _346
REMARK  135  A    between atoms: _345  and  _348
REMARK  136  A    between atoms: _348  and  _349
REMARK  137  A    between atoms: _352  and  _354
REMARK  138  A    between atoms: _354  and  _355
REMARK  139  A    between atoms: _358  and  _360
REMARK  140  A    between atoms: _360  and  _361
REMARK  141  A    between atoms: _360  and  _363
REMARK  142  A    between atoms: _363  and  _364
REMARK  143  A    between atoms: _369  and  _371
REMARK  144  A    between atoms: _371  and  _372
REMARK  145  A    between atoms: _375  and  _377
REMARK  146  A    between atoms: _377  and  _378
REMARK  147  A    between atoms: _377  and  _380
REMARK  148  A    between atoms: _380  and  _381
REMARK  149  A    between atoms: _386  and  _387
REMARK  150  A    between atoms: _389  and  _391
REMARK  151  A    between atoms: _391  and  _392
REMARK  152  A    between atoms: _391  and  _394
REMARK  153  A    between atoms: _394  and  _395
REMARK  154  A    between atoms: _397  and  _399
REMARK  155  A    between atoms: _399  and  _400
REMARK  156  A    between atoms: _399  and  _402
REMARK  157  A    between atoms: _402  and  _403
REMARK  158  A    between atoms: _409  and  _411
REMARK  159  A    between atoms: _411  and  _412
REMARK  160  A    between atoms: _411  and  _414
REMARK  161  A    between atoms: _414  and  _415
REMARK  162  A    between atoms: _421  and  _423
REMARK  163  A    between atoms: _423  and  _424
REMARK  164  A    between atoms: _423  and  _426
REMARK  165  A    between atoms: _426  and  _427
REMARK  166  A    between atoms: _432  and  _434
REMARK  167  A    between atoms: _434  and  _435
REMARK  168  A    between atoms: _437  and  _439
REMARK  169  A    between atoms: _439  and  _440
REMARK  170  A    between atoms: _439  and  _442
REMARK  171  A    between atoms: _445  and  _447
REMARK  172  A    between atoms: _447  and  _448
REMARK  173  A    between atoms: _447  and  _450
REMARK  174  A    between atoms: _450  and  _451
REMARK  175  A    between atoms: _461  and  _463
REMARK  176  A    between atoms: _463  and  _464
REMARK  177  A    between atoms: _467  and  _469
REMARK  178  A    between atoms: _469  and  _470
REMARK  179  A    between atoms: _469  and  _472
REMARK  180  A    between atoms: _472  and  _473
REMARK  181  A    between atoms: _473  and  _474
REMARK  182  A    between atoms: _477  and  _479
REMARK  183  A    between atoms: _479  and  _480
REMARK  184  A    between atoms: _479  and  _482
REMARK  185  A    between atoms: _482  and  _483
REMARK  186  A    between atoms: _485  and  _487
REMARK  187  A    between atoms: _487  and  _488
REMARK  188  A    between atoms: _490  and  _492
REMARK  189  A    between atoms: _492  and  _493
REMARK  190  A    between atoms: _495  and  _497
REMARK  191  A    between atoms: _497  and  _498
REMARK  192  A    between atoms: _497  and  _500
REMARK  193  A    between atoms: _500  and  _501
REMARK  194  A    between atoms: _504  and  _506
REMARK  195  A    between atoms: _506  and  _507
REMARK  196  A    between atoms: _506  and  _509
REMARK  197  A    between atoms: _512  and  _514
REMARK  198  A    between atoms: _514  and  _515
REMARK  199  A    between atoms: _517  and  _519
REMARK  200  A    between atoms: _519  and  _520
REMARK  201  A    between atoms: _523  and  _525
REMARK  202  A    between atoms: _525  and  _526
REMARK  203  A    between atoms: _525  and  _528
REMARK  204  A    between atoms: _528  and  _529
REMARK  205  A    between atoms: _535  and  _536
REMARK  206  A    between atoms: _541  and  _543
REMARK  207  A    between atoms: _543  and  _544
REMARK  208  A    between atoms: _543  and  _546
REMARK  209  A    between atoms: _546  and  _547
REMARK  210  A    between atoms: _550  and  _552
REMARK  211  A    between atoms: _552  and  _553
REMARK  212  A    between atoms: _552  and  _555
REMARK  213  A    between atoms: _555  and  _556
REMARK  214  A    between atoms: _558  and  _560
REMARK  215  A    between atoms: _560  and  _561
REMARK  216  A    between atoms: _560  and  _563
REMARK  217  A    between atoms: _563  and  _564
REMARK  218  A    between atoms: _567  and  _569
REMARK  219  A    between atoms: _569  and  _570
REMARK  220  A    between atoms: _569  and  _572
REMARK  221  A    between atoms: _572  and  _573
REMARK  222  A    between atoms: _578  and  _580
REMARK  223  A    between atoms: _580  and  _581
REMARK  224  A    between atoms: _580  and  _583
REMARK  225  A    between atoms: _583  and  _584
REMARK                            x       y       z     vdW  Elec       q    Type
REMARK                         _______ _______ _______ _____ _____    ______ ____
ROOT
ATOM      1  O   HOH     1      13.789  -7.197  47.354  0.00  0.00    +0.000 OA
ENDROOT
TORSDOF 0
REMARK  Name = ../refined-set-2016/2w7y/2w7y_pocket.pdb
REMARK  225 active torsions:
REMARK  status: ('A' for Active; 'I' for Inactive)
REMARK    1  A    between atoms: _1  and  _3
REMARK    2  A    between atoms: _3  and  _4
REMARK    3  A    between atoms: _3  and  _6
REMARK    4  A    between atoms: _6  and  _7
REMARK    5  A    between atoms: _12  and  _13
REMARK    6  A    between atoms: _15  and  _17
REMARK    7  A    between atoms: _17  and  _18
REMARK    8  A    between atoms: _17  and  _20
REMARK    9  A    between atoms: _20  and  _21
REMARK   10  A    between atoms: _26  and  _28
REMARK   11  A    between atoms: _28  and  _29
REMARK   12  A    between atoms: _31  and  _33
REMARK   13  A    between atoms: _33  and  _34
REMARK   14  A    between atoms: _33  and  _36
REMARK   15  A    between atoms: _36  and  _37
REMARK   16  A    between atoms: _42  and  _43
REMARK   17  A    between atoms: _45  and  _47
REMARK   18  A    between atoms: _47  and  _48
REMARK   19  A    between atoms: _47  and  _50
REMARK   20  A    between atoms: _50  and  _51
REMARK   21  A    between atoms: _56  and  _58
REMARK   22  A    between atoms: _58  and  _59
REMARK   23  A    between atoms: _58  and  _61
REMARK   24  A    between atoms: _61  and  _62
REMARK   25  A    between atoms: _67  and  _69
REMARK   26  A    between atoms: _69  and  _70
REMARK   27  A    between atoms: _69  and  _72
REMARK   28  A    between atoms: _72  and  _73
REMARK   29  A    between atoms: _83  and  _85
REMARK   30  A    between atoms: _85  and  _86
REMARK   31  A    between atoms: _85  and  _88
REMARK   32  A    between atoms: _91  and  _93
REMARK   33  A    between atoms: _93  and  _94
REMARK   34  A    between atoms: _97  and  _99
REMARK   35  A    between atoms: _99  and  _100
REMARK   36  A    between atoms: _99  and  _102
REMARK   37  A    between atoms: _102  and  _103
REMARK   38  A    between atoms: _103  and  _104
REMARK   39  A    between atoms: _106  and  _108
REMARK   40  A    between atoms: _108  and  _109
REMARK   41  A    between atoms: _108  and  _111
REMARK   42  A    between atoms: _111  and  _112
REMARK   43  A    between atoms: _117  and  _118
REMARK   44  A    between atoms: _120  and  _122
REMARK   45  A    between atoms: _122  and  _123
REMARK   46  A    between atoms: _122  and  _125
REMARK   47  A    between atoms: _128  and  _130
REMARK   48  A    between atoms: _130  and  _131
REMARK   49  A    between atoms: _130  and  _133
REMARK   50  A    between atoms: _133  and  _134
REMARK   51  A    between atoms: _139  and  _141
REMARK   52  A    between atoms: _141  and  _142
REMARK   53  A    between atoms: _144  and  _146
REMARK   54  A    between atoms: _146  and  _147
REMARK   55  A    between atoms: _146  and  _149
REMARK   56  A    between atoms: _149  and  _150
REMARK   57  A    between atoms: _153  and  _155
REMARK   58  A    between atoms: _155  and  _156
REMARK   59  A    between atoms: _155  and  _158
REMARK   60  A    between atoms: _158  and  _159
REMARK   61  A    between atoms: _159  and  _160
REMARK   62  A    between atoms: _160  and  _161
REMARK   63  A    between atoms: _161  and  _162
REMARK   64  A    between atoms: _166  and  _168
REMARK   65  A    between atoms: _168  and  _169
REMARK   66  A    between atoms: _168  and  _171
REMARK   67  A    between atoms: _171  and  _172
REMARK   68  A    between atoms: _175  and  _177
REMARK   69  A    between atoms: _177  and  _178
REMARK   70  A    between atoms: _177  and  _180
REMARK   71  A    between atoms: _180  and  _181
REMARK   72  A    between atoms: _184  and  _186
REMARK   73  A    between atoms: _186  and  _187
REMARK   74  A    between atoms: _190  and  _192
REMARK   75  A    between atoms: _192  and  _193
REMARK   76  A    between atoms: _195  and  _197
REMARK   77  A    between atoms: _197  and  _198
REMARK   78  A    between atoms: _197  and  _200
REMARK   79  A    between atoms: _200  and  _201
REMARK   80  A    between atoms: _206  and  _208
REMARK   81  A    between atoms: _208  and  _209
REMARK   82  A    between atoms: _212  and  _214
REMARK   83  A    between atoms: _214  and  _215
REMARK   84  A    between atoms: _214  and  _217
REMARK   85  A    between atoms: _217  and  _218
REMARK   86  A    between atoms: _223  and  _225
REMARK   87  A    between atoms: _225  and  _226
REMARK   88  A    between atoms: _225  and  _228
REMARK   89  A    between atoms: _228  and  _229
REMARK   90  A    between atoms: _229  and  _230
REMARK   91  A    between atoms: _233  and  _235
REMARK   92  A    between atoms: _235  and  _236
REMARK   93  A    between atoms: _235  and  _238
REMARK   94  A    between atoms: _238  and  _239
REMARK   95  A    between atoms: _239  and  _240
REMARK   96  A    between atoms: _245  and  _247
REMARK   97  A    between atoms: _247  and  _248
REMARK   98  A    between atoms: _247  and  _250
REMARK   99  A    between atoms: _250  and  _251
REMARK  100  A    between atoms: _254  and  _256
REMARK  101  A    between atoms: _256  and  _257
REMARK  102  A    between atoms: _256  and  _259
REMARK  103  A    between atoms: _259  and  _260
REMARK  104  A    between atoms: _266  and  _268
REMARK  105  A    between atoms: _268  and  _269
REMARK  106  A    between atoms: _268  and  _271
REMARK  107  A    between atoms: _271  and  _272
REMARK  108  A    between atoms: _275  and  _277
REMARK  109  A    between atoms: _277  and  _278
REMARK  110  A    between atoms: _277  and  _280
REMARK  111  A    between atoms: _280  and  _281
REMARK  112  A    between atoms: _281  and  _282
REMARK  113  A    between atoms: _284  and  _286
REMARK  114  A    between atoms: _286  and  _287
REMARK  115  A    between atoms: _286  and  _289
REMARK  116  A    between atoms: _289  and  _290
REMARK  117  A    between atoms: _300  and  _302
REMARK  118  A    between atoms: _302  and  _303
REMARK  119  A    between atoms: _302  and  _305
REMARK  120  A    between atoms: _305  and  _306
REMARK  121  A    between atoms: _306  and  _307
REMARK  122  A    between atoms: _311  and  _312
REMARK  123  A    between atoms: _317  and  _319
REMARK  124  A    between atoms: _319  and  _320
REMARK  125  A    between atoms: _319  and  _322
REMARK  126  A    between atoms: _322  and  _323
REMARK  127  A    between atoms: _326  and  _328
REMARK  128  A    between atoms: _328  and  _329
REMARK  129  A    between atoms: _328  and  _331
REMARK  130  A    between atoms: _331  and  _332
REMARK  131  A    between atoms: _332  and  _333
REMARK  132  A    between atoms: _333  and  _334
REMARK  133  A    between atoms: _343  and  _345
REMARK  134  A    between atoms: _345  and  _346
REMARK  135  A    between atoms: _345  and  _348
REMARK  136  A    between atoms: _348  and  _349
REMARK  137  A    between atoms: _352  and  _354
REMARK  138  A    between atoms: _354  and  _355
REMARK  139  A    between atoms: _358  and  _360
REMARK  140  A    between atoms: _360  and  _361
REMARK  141  A    between atoms: _360  and  _363
REMARK  142  A    between atoms: _363  and  _364
REMARK  143  A    between atoms: _369  and  _371
REMARK  144  A    between atoms: _371  and  _372
REMARK  145  A    between atoms: _375  and  _377
REMARK  146  A    between atoms: _377  and  _378
REMARK  147  A    between atoms: _377  and  _380
REMARK  148  A    between atoms: _380  and  _381
REMARK  149  A    between atoms: _386  and  _387
REMARK  150  A    between atoms: _389  and  _391
REMARK  151  A    between atoms: _391  and  _392
REMARK  152  A    between atoms: _391  and  _394
REMARK  153  A    between atoms: _394  and  _395
REMARK  154  A    between atoms: _397  and  _399
REMARK  155  A    between atoms: _399  and  _400
REMARK  156  A    between atoms: _399  and  _402
REMARK  157  A    between atoms: _402  and  _403
REMARK  158  A    between atoms: _409  and  _411
REMARK  159  A    between atoms: _411  and  _412
REMARK  160  A    between atoms: _411  and  _414
REMARK  161  A    between atoms: _414  and  _415
REMARK  162  A    between atoms: _421  and  _423
REMARK  163  A    between atoms: _423  and  _424
REMARK  164  A    between atoms: _423  and  _426
REMARK  165  A    between atoms: _426  and  _427
REMARK  166  A    between atoms: _432  and  _434
REMARK  167  A    between atoms: _434  and  _435
REMARK  168  A    between atoms: _437  and  _439
REMARK  169  A    between atoms: _439  and  _440
REMARK  170  A    between atoms: _439  and  _442
REMARK  171  A    between atoms: _445  and  _447
REMARK  172  A    between atoms: _447  and  _448
REMARK  173  A    between atoms: _447  and  _450
REMARK  174  A    between atoms: _450  and  _451
REMARK  175  A    between atoms: _461  and  _463
REMARK  176  A    between atoms: _463  and  _464
REMARK  177  A    between atoms: _467  and  _469
REMARK  178  A    between atoms: _469  and  _470
REMARK  179  A    between atoms: _469  and  _472
REMARK  180  A    between atoms: _472  and  _473
REMARK  181  A    between atoms: _473  and  _474
REMARK  182  A    between atoms: _477  and  _479
REMARK  183  A    between atoms: _479  and  _480
REMARK  184  A    between atoms: _479  and  _482
REMARK  185  A    between atoms: _482  and  _483
REMARK  186  A    between atoms: _485  and  _487
REMARK  187  A    between atoms: _487  and  _488
REMARK  188  A    between atoms: _490  and  _492
REMARK  189  A    between atoms: _492  and  _493
REMARK  190  A    between atoms: _495  and  _497
REMARK  191  A    between atoms: _497  and  _498
REMARK  192  A    between atoms: _497  and  _500
REMARK  193  A    between atoms: _500  and  _501
REMARK  194  A    between atoms: _504  and  _506
REMARK  195  A    between atoms: _506  and  _507
REMARK  196  A    between atoms: _506  and  _509
REMARK  197  A    between atoms: _512  and  _514
REMARK  198  A    between atoms: _514  and  _515
REMARK  199  A    between atoms: _517  and  _519
REMARK  200  A    between atoms: _519  and  _520
REMARK  201  A    between atoms: _523  and  _525
REMARK  202  A    between atoms: _525  and  _526
REMARK  203  A    between atoms: _525  and  _528
REMARK  204  A    between atoms: _528  and  _529
REMARK  205  A    between atoms: _535  and  _536
REMARK  206  A    between atoms: _541  and  _543
REMARK  207  A    between atoms: _543  and  _544
REMARK  208  A    between atoms: _543  and  _546
REMARK  209  A    between atoms: _546  and  _547
REMARK  210  A    between atoms: _550  and  _552
REMARK  211  A    between atoms: _552  and  _553
REMARK  212  A    between atoms: _552  and  _555
REMARK  213  A    between atoms: _555  and  _556
REMARK  214  A    between atoms: _558  and  _560
REMARK  215  A    between atoms: _560  and  _561
REMARK  216  A    between atoms: _560  and  _563
REMARK  217  A    between atoms: _563  and  _564
REMARK  218  A    between atoms: _567  and  _569
REMARK  219  A    between atoms: _569  and  _570
REMARK  220  A    between atoms: _569  and  _572
REMARK  221  A    between atoms: _572  and  _573
REMARK  222  A    between atoms: _578  and  _580
REMARK  223  A    between atoms: _580  and  _581
REMARK  224  A    between atoms: _580  and  _583
REMARK  225  A    between atoms: _583  and  _584
REMARK                            x       y       z     vdW  Elec       q    Type
REMARK                         _______ _______ _______ _____ _____    ______ ____
ROOT
ATOM      1  O   HOH     1      17.607   6.978  47.777  0.00  0.00    +0.000 OA
ENDROOT
TORSDOF 0
REMARK  Name = ../refined-set-2016/2w7y/2w7y_pocket.pdb
REMARK  225 active torsions:
REMARK  status: ('A' for Active; 'I' for Inactive)
REMARK    1  A    between atoms: _1  and  _3
REMARK    2  A    between atoms: _3  and  _4
REMARK    3  A    between atoms: _3  and  _6
REMARK    4  A    between atoms: _6  and  _7
REMARK    5  A    between atoms: _12  and  _13
REMARK    6  A    between atoms: _15  and  _17
REMARK    7  A    between atoms: _17  and  _18
REMARK    8  A    between atoms: _17  and  _20
REMARK    9  A    between atoms: _20  and  _21
REMARK   10  A    between atoms: _26  and  _28
REMARK   11  A    between atoms: _28  and  _29
REMARK   12  A    between atoms: _31  and  _33
REMARK   13  A    between atoms: _33  and  _34
REMARK   14  A    between atoms: _33  and  _36
REMARK   15  A    between atoms: _36  and  _37
REMARK   16  A    between atoms: _42  and  _43
REMARK   17  A    between atoms: _45  and  _47
REMARK   18  A    between atoms: _47  and  _48
REMARK   19  A    between atoms: _47  and  _50
REMARK   20  A    between atoms: _50  and  _51
REMARK   21  A    between atoms: _56  and  _58
REMARK   22  A    between atoms: _58  and  _59
REMARK   23  A    between atoms: _58  and  _61
REMARK   24  A    between atoms: _61  and  _62
REMARK   25  A    between atoms: _67  and  _69
REMARK   26  A    between atoms: _69  and  _70
REMARK   27  A    between atoms: _69  and  _72
REMARK   28  A    between atoms: _72  and  _73
REMARK   29  A    between atoms: _83  and  _85
REMARK   30  A    between atoms: _85  and  _86
REMARK   31  A    between atoms: _85  and  _88
REMARK   32  A    between atoms: _91  and  _93
REMARK   33  A    between atoms: _93  and  _94
REMARK   34  A    between atoms: _97  and  _99
REMARK   35  A    between atoms: _99  and  _100
REMARK   36  A    between atoms: _99  and  _102
REMARK   37  A    between atoms: _102  and  _103
REMARK   38  A    between atoms: _103  and  _104
REMARK   39  A    between atoms: _106  and  _108
REMARK   40  A    between atoms: _108  and  _109
REMARK   41  A    between atoms: _108  and  _111
REMARK   42  A    between atoms: _111  and  _112
REMARK   43  A    between atoms: _117  and  _118
REMARK   44  A    between atoms: _120  and  _122
REMARK   45  A    between atoms: _122  and  _123
REMARK   46  A    between atoms: _122  and  _125
REMARK   47  A    between atoms: _128  and  _130
REMARK   48  A    between atoms: _130  and  _131
REMARK   49  A    between atoms: _130  and  _133
REMARK   50  A    between atoms: _133  and  _134
REMARK   51  A    between atoms: _139  and  _141
REMARK   52  A    between atoms: _141  and  _142
REMARK   53  A    between atoms: _144  and  _146
REMARK   54  A    between atoms: _146  and  _147
REMARK   55  A    between atoms: _146  and  _149
REMARK   56  A    between atoms: _149  and  _150
REMARK   57  A    between atoms: _153  and  _155
REMARK   58  A    between atoms: _155  and  _156
REMARK   59  A    between atoms: _155  and  _158
REMARK   60  A    between atoms: _158  and  _159
REMARK   61  A    between atoms: _159  and  _160
REMARK   62  A    between atoms: _160  and  _161
REMARK   63  A    between atoms: _161  and  _162
REMARK   64  A    between atoms: _166  and  _168
REMARK   65  A    between atoms: _168  and  _169
REMARK   66  A    between atoms: _168  and  _171
REMARK   67  A    between atoms: _171  and  _172
REMARK   68  A    between atoms: _175  and  _177
REMARK   69  A    between atoms: _177  and  _178
REMARK   70  A    between atoms: _177  and  _180
REMARK   71  A    between atoms: _180  and  _181
REMARK   72  A    between atoms: _184  and  _186
REMARK   73  A    between atoms: _186  and  _187
REMARK   74  A    between atoms: _190  and  _192
REMARK   75  A    between atoms: _192  and  _193
REMARK   76  A    between atoms: _195  and  _197
REMARK   77  A    between atoms: _197  and  _198
REMARK   78  A    between atoms: _197  and  _200
REMARK   79  A    between atoms: _200  and  _201
REMARK   80  A    between atoms: _206  and  _208
REMARK   81  A    between atoms: _208  and  _209
REMARK   82  A    between atoms: _212  and  _214
REMARK   83  A    between atoms: _214  and  _215
REMARK   84  A    between atoms: _214  and  _217
REMARK   85  A    between atoms: _217  and  _218
REMARK   86  A    between atoms: _223  and  _225
REMARK   87  A    between atoms: _225  and  _226
REMARK   88  A    between atoms: _225  and  _228
REMARK   89  A    between atoms: _228  and  _229
REMARK   90  A    between atoms: _229  and  _230
REMARK   91  A    between atoms: _233  and  _235
REMARK   92  A    between atoms: _235  and  _236
REMARK   93  A    between atoms: _235  and  _238
REMARK   94  A    between atoms: _238  and  _239
REMARK   95  A    between atoms: _239  and  _240
REMARK   96  A    between atoms: _245  and  _247
REMARK   97  A    between atoms: _247  and  _248
REMARK   98  A    between atoms: _247  and  _250
REMARK   99  A    between atoms: _250  and  _251
REMARK  100  A    between atoms: _254  and  _256
REMARK  101  A    between atoms: _256  and  _257
REMARK  102  A    between atoms: _256  and  _259
REMARK  103  A    between atoms: _259  and  _260
REMARK  104  A    between atoms: _266  and  _268
REMARK  105  A    between atoms: _268  and  _269
REMARK  106  A    between atoms: _268  and  _271
REMARK  107  A    between atoms: _271  and  _272
REMARK  108  A    between atoms: _275  and  _277
REMARK  109  A    between atoms: _277  and  _278
REMARK  110  A    between atoms: _277  and  _280
REMARK  111  A    between atoms: _280  and  _281
REMARK  112  A    between atoms: _281  and  _282
REMARK  113  A    between atoms: _284  and  _286
REMARK  114  A    between atoms: _286  and  _287
REMARK  115  A    between atoms: _286  and  _289
REMARK  116  A    between atoms: _289  and  _290
REMARK  117  A    between atoms: _300  and  _302
REMARK  118  A    between atoms: _302  and  _303
REMARK  119  A    between atoms: _302  and  _305
REMARK  120  A    between atoms: _305  and  _306
REMARK  121  A    between atoms: _306  and  _307
REMARK  122  A    between atoms: _311  and  _312
REMARK  123  A    between atoms: _317  and  _319
REMARK  124  A    between atoms: _319  and  _320
REMARK  125  A    between atoms: _319  and  _322
REMARK  126  A    between atoms: _322  and  _323
REMARK  127  A    between atoms: _326  and  _328
REMARK  128  A    between atoms: _328  and  _329
REMARK  129  A    between atoms: _328  and  _331
REMARK  130  A    between atoms: _331  and  _332
REMARK  131  A    between atoms: _332  and  _333
REMARK  132  A    between atoms: _333  and  _334
REMARK  133  A    between atoms: _343  and  _345
REMARK  134  A    between atoms: _345  and  _346
REMARK  135  A    between atoms: _345  and  _348
REMARK  136  A    between atoms: _348  and  _349
REMARK  137  A    between atoms: _352  and  _354
REMARK  138  A    between atoms: _354  and  _355
REMARK  139  A    between atoms: _358  and  _360
REMARK  140  A    between atoms: _360  and  _361
REMARK  141  A    between atoms: _360  and  _363
REMARK  142  A    between atoms: _363  and  _364
REMARK  143  A    between atoms: _369  and  _371
REMARK  144  A    between atoms: _371  and  _372
REMARK  145  A    between atoms: _375  and  _377
REMARK  146  A    between atoms: _377  and  _378
REMARK  147  A    between atoms: _377  and  _380
REMARK  148  A    between atoms: _380  and  _381
REMARK  149  A    between atoms: _386  and  _387
REMARK  150  A    between atoms: _389  and  _391
REMARK  151  A    between atoms: _391  and  _392
REMARK  152  A    between atoms: _391  and  _394
REMARK  153  A    between atoms: _394  and  _395
REMARK  154  A    between atoms: _397  and  _399
REMARK  155  A    between atoms: _399  and  _400
REMARK  156  A    between atoms: _399  and  _402
REMARK  157  A    between atoms: _402  and  _403
REMARK  158  A    between atoms: _409  and  _411
REMARK  159  A    between atoms: _411  and  _412
REMARK  160  A    between atoms: _411  and  _414
REMARK  161  A    between atoms: _414  and  _415
REMARK  162  A    between atoms: _421  and  _423
REMARK  163  A    between atoms: _423  and  _424
REMARK  164  A    between atoms: _423  and  _426
REMARK  165  A    between atoms: _426  and  _427
REMARK  166  A    between atoms: _432  and  _434
REMARK  167  A    between atoms: _434  and  _435
REMARK  168  A    between atoms: _437  and  _439
REMARK  169  A    between atoms: _439  and  _440
REMARK  170  A    between atoms: _439  and  _442
REMARK  171  A    between atoms: _445  and  _447
REMARK  172  A    between atoms: _447  and  _448
REMARK  173  A    between atoms: _447  and  _450
REMARK  174  A    between atoms: _450  and  _451
REMARK  175  A    between atoms: _461  and  _463
REMARK  176  A    between atoms: _463  and  _464
REMARK  177  A    between atoms: _467  and  _469
REMARK  178  A    between atoms: _469  and  _470
REMARK  179  A    between atoms: _469  and  _472
REMARK  180  A    between atoms: _472  and  _473
REMARK  181  A    between atoms: _473  and  _474
REMARK  182  A    between atoms: _477  and  _479
REMARK  183  A    between atoms: _479  and  _480
REMARK  184  A    between atoms: _479  and  _482
REMARK  185  A    between atoms: _482  and  _483
REMARK  186  A    between atoms: _485  and  _487
REMARK  187  A    between atoms: _487  and  _488
REMARK  188  A    between atoms: _490  and  _492
REMARK  189  A    between atoms: _492  and  _493
REMARK  190  A    between atoms: _495  and  _497
REMARK  191  A    between atoms: _497  and  _498
REMARK  192  A    between atoms: _497  and  _500
REMARK  193  A    between atoms: _500  and  _501
REMARK  194  A    between atoms: _504  and  _506
REMARK  195  A    between atoms: _506  and  _507
REMARK  196  A    between atoms: _506  and  _509
REMARK  197  A    between atoms: _512  and  _514
REMARK  198  A    between atoms: _514  and  _515
REMARK  199  A    between atoms: _517  and  _519
REMARK  200  A    between atoms: _519  and  _520
REMARK  201  A    between atoms: _523  and  _525
REMARK  202  A    between atoms: _525  and  _526
REMARK  203  A    between atoms: _525  and  _528
REMARK  204  A    between atoms: _528  and  _529
REMARK  205  A    between atoms: _535  and  _536
REMARK  206  A    between atoms: _541  and  _543
REMARK  207  A    between atoms: _543  and  _544
REMARK  208  A    between atoms: _543  and  _546
REMARK  209  A    between atoms: _546  and  _547
REMARK  210  A    between atoms: _550  and  _552
REMARK  211  A    between atoms: _552  and  _553
REMARK  212  A    between atoms: _552  and  _555
REMARK  213  A    between atoms: _555  and  _556
REMARK  214  A    between atoms: _558  and  _560
REMARK  215  A    between atoms: _560  and  _561
REMARK  216  A    between atoms: _560  and  _563
REMARK  217  A    between atoms: _563  and  _564
REMARK  218  A    between atoms: _567  and  _569
REMARK  219  A    between atoms: _569  and  _570
REMARK  220  A    between atoms: _569  and  _572
REMARK  221  A    between atoms: _572  and  _573
REMARK  222  A    between atoms: _578  and  _580
REMARK  223  A    between atoms: _580  and  _581
REMARK  224  A    between atoms: _580  and  _583
REMARK  225  A    between atoms: _583  and  _584
REMARK                            x       y       z     vdW  Elec       q    Type
REMARK                         _______ _______ _______ _____ _____    ______ ____
ROOT
ATOM      1  O   HOH     1      15.236   0.816  44.775  0.00  0.00    +0.000 OA
ENDROOT
TORSDOF 0
REMARK  Name = ../refined-set-2016/2w7y/2w7y_pocket.pdb
REMARK  225 active torsions:
REMARK  status: ('A' for Active; 'I' for Inactive)
REMARK    1  A    between atoms: _1  and  _3
REMARK    2  A    between atoms: _3  and  _4
REMARK    3  A    between atoms: _3  and  _6
REMARK    4  A    between atoms: _6  and  _7
REMARK    5  A    between atoms: _12  and  _13
REMARK    6  A    between atoms: _15  and  _17
REMARK    7  A    between atoms: _17  and  _18
REMARK    8  A    between atoms: _17  and  _20
REMARK    9  A    between atoms: _20  and  _21
REMARK   10  A    between atoms: _26  and  _28
REMARK   11  A    between atoms: _28  and  _29
REMARK   12  A    between atoms: _31  and  _33
REMARK   13  A    between atoms: _33  and  _34
REMARK   14  A    between atoms: _33  and  _36
REMARK   15  A    between atoms: _36  and  _37
REMARK   16  A    between atoms: _42  and  _43
REMARK   17  A    between atoms: _45  and  _47
REMARK   18  A    between atoms: _47  and  _48
REMARK   19  A    between atoms: _47  and  _50
REMARK   20  A    between atoms: _50  and  _51
REMARK   21  A    between atoms: _56  and  _58
REMARK   22  A    between atoms: _58  and  _59
REMARK   23  A    between atoms: _58  and  _61
REMARK   24  A    between atoms: _61  and  _62
REMARK   25  A    between atoms: _67  and  _69
REMARK   26  A    between atoms: _69  and  _70
REMARK   27  A    between atoms: _69  and  _72
REMARK   28  A    between atoms: _72  and  _73
REMARK   29  A    between atoms: _83  and  _85
REMARK   30  A    between atoms: _85  and  _86
REMARK   31  A    between atoms: _85  and  _88
REMARK   32  A    between atoms: _91  and  _93
REMARK   33  A    between atoms: _93  and  _94
REMARK   34  A    between atoms: _97  and  _99
REMARK   35  A    between atoms: _99  and  _100
REMARK   36  A    between atoms: _99  and  _102
REMARK   37  A    between atoms: _102  and  _103
REMARK   38  A    between atoms: _103  and  _104
REMARK   39  A    between atoms: _106  and  _108
REMARK   40  A    between atoms: _108  and  _109
REMARK   41  A    between atoms: _108  and  _111
REMARK   42  A    between atoms: _111  and  _112
REMARK   43  A    between atoms: _117  and  _118
REMARK   44  A    between atoms: _120  and  _122
REMARK   45  A    between atoms: _122  and  _123
REMARK   46  A    between atoms: _122  and  _125
REMARK   47  A    between atoms: _128  and  _130
REMARK   48  A    between atoms: _130  and  _131
REMARK   49  A    between atoms: _130  and  _133
REMARK   50  A    between atoms: _133  and  _134
REMARK   51  A    between atoms: _139  and  _141
REMARK   52  A    between atoms: _141  and  _142
REMARK   53  A    between atoms: _144  and  _146
REMARK   54  A    between atoms: _146  and  _147
REMARK   55  A    between atoms: _146  and  _149
REMARK   56  A    between atoms: _149  and  _150
REMARK   57  A    between atoms: _153  and  _155
REMARK   58  A    between atoms: _155  and  _156
REMARK   59  A    between atoms: _155  and  _158
REMARK   60  A    between atoms: _158  and  _159
REMARK   61  A    between atoms: _159  and  _160
REMARK   62  A    between atoms: _160  and  _161
REMARK   63  A    between atoms: _161  and  _162
REMARK   64  A    between atoms: _166  and  _168
REMARK   65  A    between atoms: _168  and  _169
REMARK   66  A    between atoms: _168  and  _171
REMARK   67  A    between atoms: _171  and  _172
REMARK   68  A    between atoms: _175  and  _177
REMARK   69  A    between atoms: _177  and  _178
REMARK   70  A    between atoms: _177  and  _180
REMARK   71  A    between atoms: _180  and  _181
REMARK   72  A    between atoms: _184  and  _186
REMARK   73  A    between atoms: _186  and  _187
REMARK   74  A    between atoms: _190  and  _192
REMARK   75  A    between atoms: _192  and  _193
REMARK   76  A    between atoms: _195  and  _197
REMARK   77  A    between atoms: _197  and  _198
REMARK   78  A    between atoms: _197  and  _200
REMARK   79  A    between atoms: _200  and  _201
REMARK   80  A    between atoms: _206  and  _208
REMARK   81  A    between atoms: _208  and  _209
REMARK   82  A    between atoms: _212  and  _214
REMARK   83  A    between atoms: _214  and  _215
REMARK   84  A    between atoms: _214  and  _217
REMARK   85  A    between atoms: _217  and  _218
REMARK   86  A    between atoms: _223  and  _225
REMARK   87  A    between atoms: _225  and  _226
REMARK   88  A    between atoms: _225  and  _228
REMARK   89  A    between atoms: _228  and  _229
REMARK   90  A    between atoms: _229  and  _230
REMARK   91  A    between atoms: _233  and  _235
REMARK   92  A    between atoms: _235  and  _236
REMARK   93  A    between atoms: _235  and  _238
REMARK   94  A    between atoms: _238  and  _239
REMARK   95  A    between atoms: _239  and  _240
REMARK   96  A    between atoms: _245  and  _247
REMARK   97  A    between atoms: _247  and  _248
REMARK   98  A    between atoms: _247  and  _250
REMARK   99  A    between atoms: _250  and  _251
REMARK  100  A    between atoms: _254  and  _256
REMARK  101  A    between atoms: _256  and  _257
REMARK  102  A    between atoms: _256  and  _259
REMARK  103  A    between atoms: _259  and  _260
REMARK  104  A    between atoms: _266  and  _268
REMARK  105  A    between atoms: _268  and  _269
REMARK  106  A    between atoms: _268  and  _271
REMARK  107  A    between atoms: _271  and  _272
REMARK  108  A    between atoms: _275  and  _277
REMARK  109  A    between atoms: _277  and  _278
REMARK  110  A    between atoms: _277  and  _280
REMARK  111  A    between atoms: _280  and  _281
REMARK  112  A    between atoms: _281  and  _282
REMARK  113  A    between atoms: _284  and  _286
REMARK  114  A    between atoms: _286  and  _287
REMARK  115  A    between atoms: _286  and  _289
REMARK  116  A    between atoms: _289  and  _290
REMARK  117  A    between atoms: _300  and  _302
REMARK  118  A    between atoms: _302  and  _303
REMARK  119  A    between atoms: _302  and  _305
REMARK  120  A    between atoms: _305  and  _306
REMARK  121  A    between atoms: _306  and  _307
REMARK  122  A    between atoms: _311  and  _312
REMARK  123  A    between atoms: _317  and  _319
REMARK  124  A    between atoms: _319  and  _320
REMARK  125  A    between atoms: _319  and  _322
REMARK  126  A    between atoms: _322  and  _323
REMARK  127  A    between atoms: _326  and  _328
REMARK  128  A    between atoms: _328  and  _329
REMARK  129  A    between atoms: _328  and  _331
REMARK  130  A    between atoms: _331  and  _332
REMARK  131  A    between atoms: _332  and  _333
REMARK  132  A    between atoms: _333  and  _334
REMARK  133  A    between atoms: _343  and  _345
REMARK  134  A    between atoms: _345  and  _346
REMARK  135  A    between atoms: _345  and  _348
REMARK  136  A    between atoms: _348  and  _349
REMARK  137  A    between atoms: _352  and  _354
REMARK  138  A    between atoms: _354  and  _355
REMARK  139  A    between atoms: _358  and  _360
REMARK  140  A    between atoms: _360  and  _361
REMARK  141  A    between atoms: _360  and  _363
REMARK  142  A    between atoms: _363  and  _364
REMARK  143  A    between atoms: _369  and  _371
REMARK  144  A    between atoms: _371  and  _372
REMARK  145  A    between atoms: _375  and  _377
REMARK  146  A    between atoms: _377  and  _378
REMARK  147  A    between atoms: _377  and  _380
REMARK  148  A    between atoms: _380  and  _381
REMARK  149  A    between atoms: _386  and  _387
REMARK  150  A    between atoms: _389  and  _391
REMARK  151  A    between atoms: _391  and  _392
REMARK  152  A    between atoms: _391  and  _394
REMARK  153  A    between atoms: _394  and  _395
REMARK  154  A    between atoms: _397  and  _399
REMARK  155  A    between atoms: _399  and  _400
REMARK  156  A    between atoms: _399  and  _402
REMARK  157  A    between atoms: _402  and  _403
REMARK  158  A    between atoms: _409  and  _411
REMARK  159  A    between atoms: _411  and  _412
REMARK  160  A    between atoms: _411  and  _414
REMARK  161  A    between atoms: _414  and  _415
REMARK  162  A    between atoms: _421  and  _423
REMARK  163  A    between atoms: _423  and  _424
REMARK  164  A    between atoms: _423  and  _426
REMARK  165  A    between atoms: _426  and  _427
REMARK  166  A    between atoms: _432  and  _434
REMARK  167  A    between atoms: _434  and  _435
REMARK  168  A    between atoms: _437  and  _439
REMARK  169  A    between atoms: _439  and  _440
REMARK  170  A    between atoms: _439  and  _442
REMARK  171  A    between atoms: _445  and  _447
REMARK  172  A    between atoms: _447  and  _448
REMARK  173  A    between atoms: _447  and  _450
REMARK  174  A    between atoms: _450  and  _451
REMARK  175  A    between atoms: _461  and  _463
REMARK  176  A    between atoms: _463  and  _464
REMARK  177  A    between atoms: _467  and  _469
REMARK  178  A    between atoms: _469  and  _470
REMARK  179  A    between atoms: _469  and  _472
REMARK  180  A    between atoms: _472  and  _473
REMARK  181  A    between atoms: _473  and  _474
REMARK  182  A    between atoms: _477  and  _479
REMARK  183  A    between atoms: _479  and  _480
REMARK  184  A    between atoms: _479  and  _482
REMARK  185  A    between atoms: _482  and  _483
REMARK  186  A    between atoms: _485  and  _487
REMARK  187  A    between atoms: _487  and  _488
REMARK  188  A    between atoms: _490  and  _492
REMARK  189  A    between atoms: _492  and  _493
REMARK  190  A    between atoms: _495  and  _497
REMARK  191  A    between atoms: _497  and  _498
REMARK  192  A    between atoms: _497  and  _500
REMARK  193  A    between atoms: _500  and  _501
REMARK  194  A    between atoms: _504  and  _506
REMARK  195  A    between atoms: _506  and  _507
REMARK  196  A    between atoms: _506  and  _509
REMARK  197  A    between atoms: _512  and  _514
REMARK  198  A    between atoms: _514  and  _515
REMARK  199  A    between atoms: _517  and  _519
REMARK  200  A    between atoms: _519  and  _520
REMARK  201  A    between atoms: _523  and  _525
REMARK  202  A    between atoms: _525  and  _526
REMARK  203  A    between atoms: _525  and  _528
REMARK  204  A    between atoms: _528  and  _529
REMARK  205  A    between atoms: _535  and  _536
REMARK  206  A    between atoms: _541  and  _543
REMARK  207  A    between atoms: _543  and  _544
REMARK  208  A    between atoms: _543  and  _546
REMARK  209  A    between atoms: _546  and  _547
REMARK  210  A    between atoms: _550  and  _552
REMARK  211  A    between atoms: _552  and  _553
REMARK  212  A    between atoms: _552  and  _555
REMARK  213  A    between atoms: _555  and  _556
REMARK  214  A    between atoms: _558  and  _560
REMARK  215  A    between atoms: _560  and  _561
REMARK  216  A    between atoms: _560  and  _563
REMARK  217  A    between atoms: _563  and  _564
REMARK  218  A    between atoms: _567  and  _569
REMARK  219  A    between atoms: _569  and  _570
REMARK  220  A    between atoms: _569  and  _572
REMARK  221  A    between atoms: _572  and  _573
REMARK  222  A    between atoms: _578  and  _580
REMARK  223  A    between atoms: _580  and  _581
REMARK  224  A    between atoms: _580  and  _583
REMARK  225  A    between atoms: _583  and  _584
REMARK                            x       y       z     vdW  Elec       q    Type
REMARK                         _______ _______ _______ _____ _____    ______ ____
ROOT
ATOM      1  O   HOH     1      15.821   7.478  49.423  0.00  0.00    +0.000 OA
ENDROOT
TORSDOF 0
REMARK  Name = ../refined-set-2016/2w7y/2w7y_pocket.pdb
REMARK  225 active torsions:
REMARK  status: ('A' for Active; 'I' for Inactive)
REMARK    1  A    between atoms: _1  and  _3
REMARK    2  A    between atoms: _3  and  _4
REMARK    3  A    between atoms: _3  and  _6
REMARK    4  A    between atoms: _6  and  _7
REMARK    5  A    between atoms: _12  and  _13
REMARK    6  A    between atoms: _15  and  _17
REMARK    7  A    between atoms: _17  and  _18
REMARK    8  A    between atoms: _17  and  _20
REMARK    9  A    between atoms: _20  and  _21
REMARK   10  A    between atoms: _26  and  _28
REMARK   11  A    between atoms: _28  and  _29
REMARK   12  A    between atoms: _31  and  _33
REMARK   13  A    between atoms: _33  and  _34
REMARK   14  A    between atoms: _33  and  _36
REMARK   15  A    between atoms: _36  and  _37
REMARK   16  A    between atoms: _42  and  _43
REMARK   17  A    between atoms: _45  and  _47
REMARK   18  A    between atoms: _47  and  _48
REMARK   19  A    between atoms: _47  and  _50
REMARK   20  A    between atoms: _50  and  _51
REMARK   21  A    between atoms: _56  and  _58
REMARK   22  A    between atoms: _58  and  _59
REMARK   23  A    between atoms: _58  and  _61
REMARK   24  A    between atoms: _61  and  _62
REMARK   25  A    between atoms: _67  and  _69
REMARK   26  A    between atoms: _69  and  _70
REMARK   27  A    between atoms: _69  and  _72
REMARK   28  A    between atoms: _72  and  _73
REMARK   29  A    between atoms: _83  and  _85
REMARK   30  A    between atoms: _85  and  _86
REMARK   31  A    between atoms: _85  and  _88
REMARK   32  A    between atoms: _91  and  _93
REMARK   33  A    between atoms: _93  and  _94
REMARK   34  A    between atoms: _97  and  _99
REMARK   35  A    between atoms: _99  and  _100
REMARK   36  A    between atoms: _99  and  _102
REMARK   37  A    between atoms: _102  and  _103
REMARK   38  A    between atoms: _103  and  _104
REMARK   39  A    between atoms: _106  and  _108
REMARK   40  A    between atoms: _108  and  _109
REMARK   41  A    between atoms: _108  and  _111
REMARK   42  A    between atoms: _111  and  _112
REMARK   43  A    between atoms: _117  and  _118
REMARK   44  A    between atoms: _120  and  _122
REMARK   45  A    between atoms: _122  and  _123
REMARK   46  A    between atoms: _122  and  _125
REMARK   47  A    between atoms: _128  and  _130
REMARK   48  A    between atoms: _130  and  _131
REMARK   49  A    between atoms: _130  and  _133
REMARK   50  A    between atoms: _133  and  _134
REMARK   51  A    between atoms: _139  and  _141
REMARK   52  A    between atoms: _141  and  _142
REMARK   53  A    between atoms: _144  and  _146
REMARK   54  A    between atoms: _146  and  _147
REMARK   55  A    between atoms: _146  and  _149
REMARK   56  A    between atoms: _149  and  _150
REMARK   57  A    between atoms: _153  and  _155
REMARK   58  A    between atoms: _155  and  _156
REMARK   59  A    between atoms: _155  and  _158
REMARK   60  A    between atoms: _158  and  _159
REMARK   61  A    between atoms: _159  and  _160
REMARK   62  A    between atoms: _160  and  _161
REMARK   63  A    between atoms: _161  and  _162
REMARK   64  A    between atoms: _166  and  _168
REMARK   65  A    between atoms: _168  and  _169
REMARK   66  A    between atoms: _168  and  _171
REMARK   67  A    between atoms: _171  and  _172
REMARK   68  A    between atoms: _175  and  _177
REMARK   69  A    between atoms: _177  and  _178
REMARK   70  A    between atoms: _177  and  _180
REMARK   71  A    between atoms: _180  and  _181
REMARK   72  A    between atoms: _184  and  _186
REMARK   73  A    between atoms: _186  and  _187
REMARK   74  A    between atoms: _190  and  _192
REMARK   75  A    between atoms: _192  and  _193
REMARK   76  A    between atoms: _195  and  _197
REMARK   77  A    between atoms: _197  and  _198
REMARK   78  A    between atoms: _197  and  _200
REMARK   79  A    between atoms: _200  and  _201
REMARK   80  A    between atoms: _206  and  _208
REMARK   81  A    between atoms: _208  and  _209
REMARK   82  A    between atoms: _212  and  _214
REMARK   83  A    between atoms: _214  and  _215
REMARK   84  A    between atoms: _214  and  _217
REMARK   85  A    between atoms: _217  and  _218
REMARK   86  A    between atoms: _223  and  _225
REMARK   87  A    between atoms: _225  and  _226
REMARK   88  A    between atoms: _225  and  _228
REMARK   89  A    between atoms: _228  and  _229
REMARK   90  A    between atoms: _229  and  _230
REMARK   91  A    between atoms: _233  and  _235
REMARK   92  A    between atoms: _235  and  _236
REMARK   93  A    between atoms: _235  and  _238
REMARK   94  A    between atoms: _238  and  _239
REMARK   95  A    between atoms: _239  and  _240
REMARK   96  A    between atoms: _245  and  _247
REMARK   97  A    between atoms: _247  and  _248
REMARK   98  A    between atoms: _247  and  _250
REMARK   99  A    between atoms: _250  and  _251
REMARK  100  A    between atoms: _254  and  _256
REMARK  101  A    between atoms: _256  and  _257
REMARK  102  A    between atoms: _256  and  _259
REMARK  103  A    between atoms: _259  and  _260
REMARK  104  A    between atoms: _266  and  _268
REMARK  105  A    between atoms: _268  and  _269
REMARK  106  A    between atoms: _268  and  _271
REMARK  107  A    between atoms: _271  and  _272
REMARK  108  A    between atoms: _275  and  _277
REMARK  109  A    between atoms: _277  and  _278
REMARK  110  A    between atoms: _277  and  _280
REMARK  111  A    between atoms: _280  and  _281
REMARK  112  A    between atoms: _281  and  _282
REMARK  113  A    between atoms: _284  and  _286
REMARK  114  A    between atoms: _286  and  _287
REMARK  115  A    between atoms: _286  and  _289
REMARK  116  A    between atoms: _289  and  _290
REMARK  117  A    between atoms: _300  and  _302
REMARK  118  A    between atoms: _302  and  _303
REMARK  119  A    between atoms: _302  and  _305
REMARK  120  A    between atoms: _305  and  _306
REMARK  121  A    between atoms: _306  and  _307
REMARK  122  A    between atoms: _311  and  _312
REMARK  123  A    between atoms: _317  and  _319
REMARK  124  A    between atoms: _319  and  _320
REMARK  125  A    between atoms: _319  and  _322
REMARK  126  A    between atoms: _322  and  _323
REMARK  127  A    between atoms: _326  and  _328
REMARK  128  A    between atoms: _328  and  _329
REMARK  129  A    between atoms: _328  and  _331
REMARK  130  A    between atoms: _331  and  _332
REMARK  131  A    between atoms: _332  and  _333
REMARK  132  A    between atoms: _333  and  _334
REMARK  133  A    between atoms: _343  and  _345
REMARK  134  A    between atoms: _345  and  _346
REMARK  135  A    between atoms: _345  and  _348
REMARK  136  A    between atoms: _348  and  _349
REMARK  137  A    between atoms: _352  and  _354
REMARK  138  A    between atoms: _354  and  _355
REMARK  139  A    between atoms: _358  and  _360
REMARK  140  A    between atoms: _360  and  _361
REMARK  141  A    between atoms: _360  and  _363
REMARK  142  A    between atoms: _363  and  _364
REMARK  143  A    between atoms: _369  and  _371
REMARK  144  A    between atoms: _371  and  _372
REMARK  145  A    between atoms: _375  and  _377
REMARK  146  A    between atoms: _377  and  _378
REMARK  147  A    between atoms: _377  and  _380
REMARK  148  A    between atoms: _380  and  _381
REMARK  149  A    between atoms: _386  and  _387
REMARK  150  A    between atoms: _389  and  _391
REMARK  151  A    between atoms: _391  and  _392
REMARK  152  A    between atoms: _391  and  _394
REMARK  153  A    between atoms: _394  and  _395
REMARK  154  A    between atoms: _397  and  _399
REMARK  155  A    between atoms: _399  and  _400
REMARK  156  A    between atoms: _399  and  _402
REMARK  157  A    between atoms: _402  and  _403
REMARK  158  A    between atoms: _409  and  _411
REMARK  159  A    between atoms: _411  and  _412
REMARK  160  A    between atoms: _411  and  _414
REMARK  161  A    between atoms: _414  and  _415
REMARK  162  A    between atoms: _421  and  _423
REMARK  163  A    between atoms: _423  and  _424
REMARK  164  A    between atoms: _423  and  _426
REMARK  165  A    between atoms: _426  and  _427
REMARK  166  A    between atoms: _432  and  _434
REMARK  167  A    between atoms: _434  and  _435
REMARK  168  A    between atoms: _437  and  _439
REMARK  169  A    between atoms: _439  and  _440
REMARK  170  A    between atoms: _439  and  _442
REMARK  171  A    between atoms: _445  and  _447
REMARK  172  A    between atoms: _447  and  _448
REMARK  173  A    between atoms: _447  and  _450
REMARK  174  A    between atoms: _450  and  _451
REMARK  175  A    between atoms: _461  and  _463
REMARK  176  A    between atoms: _463  and  _464
REMARK  177  A    between atoms: _467  and  _469
REMARK  178  A    between atoms: _469  and  _470
REMARK  179  A    between atoms: _469  and  _472
REMARK  180  A    between atoms: _472  and  _473
REMARK  181  A    between atoms: _473  and  _474
REMARK  182  A    between atoms: _477  and  _479
REMARK  183  A    between atoms: _479  and  _480
REMARK  184  A    between atoms: _479  and  _482
REMARK  185  A    between atoms: _482  and  _483
REMARK  186  A    between atoms: _485  and  _487
REMARK  187  A    between atoms: _487  and  _488
REMARK  188  A    between atoms: _490  and  _492
REMARK  189  A    between atoms: _492  and  _493
REMARK  190  A    between atoms: _495  and  _497
REMARK  191  A    between atoms: _497  and  _498
REMARK  192  A    between atoms: _497  and  _500
REMARK  193  A    between atoms: _500  and  _501
REMARK  194  A    between atoms: _504  and  _506
REMARK  195  A    between atoms: _506  and  _507
REMARK  196  A    between atoms: _506  and  _509
REMARK  197  A    between atoms: _512  and  _514
REMARK  198  A    between atoms: _514  and  _515
REMARK  199  A    between atoms: _517  and  _519
REMARK  200  A    between atoms: _519  and  _520
REMARK  201  A    between atoms: _523  and  _525
REMARK  202  A    between atoms: _525  and  _526
REMARK  203  A    between atoms: _525  and  _528
REMARK  204  A    between atoms: _528  and  _529
REMARK  205  A    between atoms: _535  and  _536
REMARK  206  A    between atoms: _541  and  _543
REMARK  207  A    between atoms: _543  and  _544
REMARK  208  A    between atoms: _543  and  _546
REMARK  209  A    between atoms: _546  and  _547
REMARK  210  A    between atoms: _550  and  _552
REMARK  211  A    between atoms: _552  and  _553
REMARK  212  A    between atoms: _552  and  _555
REMARK  213  A    between atoms: _555  and  _556
REMARK  214  A    between atoms: _558  and  _560
REMARK  215  A    between atoms: _560  and  _561
REMARK  216  A    between atoms: _560  and  _563
REMARK  217  A    between atoms: _563  and  _564
REMARK  218  A    between atoms: _567  and  _569
REMARK  219  A    between atoms: _569  and  _570
REMARK  220  A    between atoms: _569  and  _572
REMARK  221  A    between atoms: _572  and  _573
REMARK  222  A    between atoms: _578  and  _580
REMARK  223  A    between atoms: _580  and  _581
REMARK  224  A    between atoms: _580  and  _583
REMARK  225  A    between atoms: _583  and  _584
REMARK                            x       y       z     vdW  Elec       q    Type
REMARK                         _______ _______ _______ _____ _____    ______ ____
ROOT
ATOM      1  O   HOH     1      20.568   8.272  46.755  0.00  0.00    +0.000 OA
ENDROOT
TORSDOF 0
