REMARK  Name = ../refined-set-2016/1b0h/1b0h_pocket.pdb
REMARK  284 active torsions:
REMARK  status: ('A' for Active; 'I' for Inactive)
REMARK    1  A    between atoms: _1  and  _3
REMARK    2  A    between atoms: _3  and  _4
REMARK    3  A    between atoms: _3  and  _6
REMARK    4  A    between atoms: _6  and  _7
REMARK    5  A    between atoms: _12  and  _14
REMARK    6  A    between atoms: _14  and  _15
REMARK    7  A    between atoms: _17  and  _19
REMARK    8  A    between atoms: _19  and  _20
REMARK    9  A    between atoms: _19  and  _22
REMARK   10  A    between atoms: _22  and  _23
REMARK   11  A    between atoms: _25  and  _27
REMARK   12  A    between atoms: _27  and  _28
REMARK   13  A    between atoms: _27  and  _30
REMARK   14  A    between atoms: _30  and  _31
REMARK   15  A    between atoms: _31  and  _32
REMARK   16  A    between atoms: _37  and  _39
REMARK   17  A    between atoms: _39  and  _40
REMARK   18  A    between atoms: _39  and  _42
REMARK   19  A    between atoms: _42  and  _43
REMARK   20  A    between atoms: _46  and  _48
REMARK   21  A    between atoms: _48  and  _49
REMARK   22  A    between atoms: _48  and  _51
REMARK   23  A    between atoms: _51  and  _52
REMARK   24  A    between atoms: _52  and  _53
REMARK   25  A    between atoms: _56  and  _58
REMARK   26  A    between atoms: _58  and  _59
REMARK   27  A    between atoms: _61  and  _63
REMARK   28  A    between atoms: _63  and  _64
REMARK   29  A    between atoms: _63  and  _66
REMARK   30  A    between atoms: _70  and  _71
REMARK   31  A    between atoms: _76  and  _78
REMARK   32  A    between atoms: _78  and  _79
REMARK   33  A    between atoms: _78  and  _81
REMARK   34  A    between atoms: _81  and  _82
REMARK   35  A    between atoms: _82  and  _83
REMARK   36  A    between atoms: _86  and  _88
REMARK   37  A    between atoms: _88  and  _89
REMARK   38  A    between atoms: _88  and  _91
REMARK   39  A    between atoms: _91  and  _92
REMARK   40  A    between atoms: _94  and  _96
REMARK   41  A    between atoms: _96  and  _97
REMARK   42  A    between atoms: _96  and  _99
REMARK   43  A    between atoms: _99  and  _100
REMARK   44  A    between atoms: _105  and  _107
REMARK   45  A    between atoms: _107  and  _108
REMARK   46  A    between atoms: _107  and  _110
REMARK   47  A    between atoms: _110  and  _111
REMARK   48  A    between atoms: _111  and  _112
REMARK   49  A    between atoms: _112  and  _113
REMARK   50  A    between atoms: _123  and  _124
REMARK   51  A    between atoms: _129  and  _131
REMARK   52  A    between atoms: _131  and  _132
REMARK   53  A    between atoms: _131  and  _134
REMARK   54  A    between atoms: _134  and  _135
REMARK   55  A    between atoms: _140  and  _141
REMARK   56  A    between atoms: _143  and  _145
REMARK   57  A    between atoms: _145  and  _146
REMARK   58  A    between atoms: _145  and  _148
REMARK   59  A    between atoms: _148  and  _149
REMARK   60  A    between atoms: _154  and  _155
REMARK   61  A    between atoms: _157  and  _159
REMARK   62  A    between atoms: _159  and  _160
REMARK   63  A    between atoms: _159  and  _162
REMARK   64  A    between atoms: _165  and  _167
REMARK   65  A    between atoms: _167  and  _168
REMARK   66  A    between atoms: _167  and  _170
REMARK   67  A    between atoms: _170  and  _171
REMARK   68  A    between atoms: _177  and  _178
REMARK   69  A    between atoms: _183  and  _185
REMARK   70  A    between atoms: _185  and  _186
REMARK   71  A    between atoms: _185  and  _188
REMARK   72  A    between atoms: _188  and  _189
REMARK   73  A    between atoms: _191  and  _193
REMARK   74  A    between atoms: _193  and  _194
REMARK   75  A    between atoms: _193  and  _196
REMARK   76  A    between atoms: _196  and  _197
REMARK   77  A    between atoms: _197  and  _198
REMARK   78  A    between atoms: _201  and  _203
REMARK   79  A    between atoms: _203  and  _204
REMARK   80  A    between atoms: _203  and  _206
REMARK   81  A    between atoms: _206  and  _207
REMARK   82  A    between atoms: _212  and  _213
REMARK   83  A    between atoms: _215  and  _217
REMARK   84  A    between atoms: _217  and  _218
REMARK   85  A    between atoms: _217  and  _220
REMARK   86  A    between atoms: _220  and  _221
REMARK   87  A    between atoms: _226  and  _228
REMARK   88  A    between atoms: _228  and  _229
REMARK   89  A    between atoms: _228  and  _231
REMARK   90  A    between atoms: _231  and  _232
REMARK   91  A    between atoms: _237  and  _239
REMARK   92  A    between atoms: _239  and  _240
REMARK   93  A    between atoms: _239  and  _242
REMARK   94  A    between atoms: _242  and  _243
REMARK   95  A    between atoms: _243  and  _244
REMARK   96  A    between atoms: _246  and  _248
REMARK   97  A    between atoms: _248  and  _249
REMARK   98  A    between atoms: _248  and  _251
REMARK   99  A    between atoms: _251  and  _252
REMARK  100  A    between atoms: _257  and  _258
REMARK  101  A    between atoms: _260  and  _262
REMARK  102  A    between atoms: _262  and  _263
REMARK  103  A    between atoms: _262  and  _265
REMARK  104  A    between atoms: _265  and  _266
REMARK  105  A    between atoms: _269  and  _271
REMARK  106  A    between atoms: _271  and  _272
REMARK  107  A    between atoms: _271  and  _274
REMARK  108  A    between atoms: _274  and  _275
REMARK  109  A    between atoms: _275  and  _491
REMARK  110  A    between atoms: _276  and  _278
REMARK  111  A    between atoms: _278  and  _279
REMARK  112  A    between atoms: _278  and  _281
REMARK  113  A    between atoms: _281  and  _282
REMARK  114  A    between atoms: _285  and  _287
REMARK  115  A    between atoms: _287  and  _288
REMARK  116  A    between atoms: _287  and  _290
REMARK  117  A    between atoms: _290  and  _291
REMARK  118  A    between atoms: _296  and  _297
REMARK  119  A    between atoms: _299  and  _301
REMARK  120  A    between atoms: _301  and  _302
REMARK  121  A    between atoms: _301  and  _304
REMARK  122  A    between atoms: _304  and  _305
REMARK  123  A    between atoms: _310  and  _311
REMARK  124  A    between atoms: _313  and  _315
REMARK  125  A    between atoms: _315  and  _316
REMARK  126  A    between atoms: _315  and  _318
REMARK  127  A    between atoms: _318  and  _319
REMARK  128  A    between atoms: _319  and  _320
REMARK  129  A    between atoms: _323  and  _325
REMARK  130  A    between atoms: _325  and  _326
REMARK  131  A    between atoms: _325  and  _328
REMARK  132  A    between atoms: _328  and  _329
REMARK  133  A    between atoms: _334  and  _335
REMARK  134  A    between atoms: _337  and  _339
REMARK  135  A    between atoms: _339  and  _340
REMARK  136  A    between atoms: _339  and  _342
REMARK  137  A    between atoms: _342  and  _343
REMARK  138  A    between atoms: _348  and  _350
REMARK  139  A    between atoms: _350  and  _351
REMARK  140  A    between atoms: _350  and  _353
REMARK  141  A    between atoms: _353  and  _354
REMARK  142  A    between atoms: _356  and  _358
REMARK  143  A    between atoms: _358  and  _359
REMARK  144  A    between atoms: _358  and  _361
REMARK  145  A    between atoms: _361  and  _362
REMARK  146  A    between atoms: _365  and  _367
REMARK  147  A    between atoms: _367  and  _368
REMARK  148  A    between atoms: _367  and  _370
REMARK  149  A    between atoms: _370  and  _371
REMARK  150  A    between atoms: _376  and  _378
REMARK  151  A    between atoms: _378  and  _379
REMARK  152  A    between atoms: _378  and  _381
REMARK  153  A    between atoms: _381  and  _382
REMARK  154  A    between atoms: _392  and  _394
REMARK  155  A    between atoms: _394  and  _395
REMARK  156  A    between atoms: _394  and  _397
REMARK  157  A    between atoms: _397  and  _398
REMARK  158  A    between atoms: _404  and  _406
REMARK  159  A    between atoms: _406  and  _407
REMARK  160  A    between atoms: _406  and  _409
REMARK  161  A    between atoms: _409  and  _410
REMARK  162  A    between atoms: _413  and  _415
REMARK  163  A    between atoms: _415  and  _416
REMARK  164  A    between atoms: _415  and  _418
REMARK  165  A    between atoms: _418  and  _419
REMARK  166  A    between atoms: _419  and  _420
REMARK  167  A    between atoms: _420  and  _421
REMARK  168  A    between atoms: _430  and  _432
REMARK  169  A    between atoms: _432  and  _433
REMARK  170  A    between atoms: _432  and  _435
REMARK  171  A    between atoms: _435  and  _436
REMARK  172  A    between atoms: _441  and  _443
REMARK  173  A    between atoms: _443  and  _444
REMARK  174  A    between atoms: _443  and  _446
REMARK  175  A    between atoms: _446  and  _447
REMARK  176  A    between atoms: _447  and  _448
REMARK  177  A    between atoms: _448  and  _449
REMARK  178  A    between atoms: _458  and  _460
REMARK  179  A    between atoms: _460  and  _461
REMARK  180  A    between atoms: _464  and  _466
REMARK  181  A    between atoms: _466  and  _467
REMARK  182  A    between atoms: _469  and  _471
REMARK  183  A    between atoms: _471  and  _472
REMARK  184  A    between atoms: _471  and  _474
REMARK  185  A    between atoms: _474  and  _475
REMARK  186  A    between atoms: _485  and  _487
REMARK  187  A    between atoms: _487  and  _488
REMARK  188  A    between atoms: _487  and  _490
REMARK  189  A    between atoms: _490  and  _491
REMARK  190  A    between atoms: _492  and  _494
REMARK  191  A    between atoms: _494  and  _495
REMARK  192  A    between atoms: _498  and  _500
REMARK  193  A    between atoms: _500  and  _501
REMARK  194  A    between atoms: _500  and  _503
REMARK  195  A    between atoms: _503  and  _504
REMARK  196  A    between atoms: _507  and  _509
REMARK  197  A    between atoms: _509  and  _510
REMARK  198  A    between atoms: _509  and  _512
REMARK  199  A    between atoms: _512  and  _513
REMARK  200  A    between atoms: _518  and  _519
REMARK  201  A    between atoms: _521  and  _523
REMARK  202  A    between atoms: _523  and  _524
REMARK  203  A    between atoms: _523  and  _526
REMARK  204  A    between atoms: _526  and  _527
REMARK  205  A    between atoms: _529  and  _531
REMARK  206  A    between atoms: _531  and  _532
REMARK  207  A    between atoms: _531  and  _534
REMARK  208  A    between atoms: _534  and  _535
REMARK  209  A    between atoms: _541  and  _543
REMARK  210  A    between atoms: _543  and  _544
REMARK  211  A    between atoms: _543  and  _546
REMARK  212  A    between atoms: _546  and  _547
REMARK  213  A    between atoms: _550  and  _552
REMARK  214  A    between atoms: _552  and  _553
REMARK  215  A    between atoms: _552  and  _555
REMARK  216  A    between atoms: _555  and  _556
REMARK  217  A    between atoms: _556  and  _557
REMARK  218  A    between atoms: _559  and  _561
REMARK  219  A    between atoms: _561  and  _562
REMARK  220  A    between atoms: _561  and  _564
REMARK  221  A    between atoms: _564  and  _565
REMARK  222  A    between atoms: _567  and  _569
REMARK  223  A    between atoms: _569  and  _570
REMARK  224  A    between atoms: _569  and  _572
REMARK  225  A    between atoms: _572  and  _573
REMARK  226  A    between atoms: _575  and  _577
REMARK  227  A    between atoms: _577  and  _578
REMARK  228  A    between atoms: _577  and  _580
REMARK  229  A    between atoms: _580  and  _581
REMARK  230  A    between atoms: _586  and  _588
REMARK  231  A    between atoms: _588  and  _589
REMARK  232  A    between atoms: _588  and  _591
REMARK  233  A    between atoms: _591  and  _592
REMARK  234  A    between atoms: _597  and  _599
REMARK  235  A    between atoms: _599  and  _600
REMARK  236  A    between atoms: _599  and  _602
REMARK  237  A    between atoms: _602  and  _603
REMARK  238  A    between atoms: _606  and  _608
REMARK  239  A    between atoms: _608  and  _609
REMARK  240  A    between atoms: _612  and  _614
REMARK  241  A    between atoms: _614  and  _615
REMARK  242  A    between atoms: _614  and  _617
REMARK  243  A    between atoms: _617  and  _618
REMARK  244  A    between atoms: _623  and  _625
REMARK  245  A    between atoms: _625  and  _626
REMARK  246  A    between atoms: _625  and  _628
REMARK  247  A    between atoms: _628  and  _629
REMARK  248  A    between atoms: _632  and  _634
REMARK  249  A    between atoms: _634  and  _635
REMARK  250  A    between atoms: _634  and  _637
REMARK  251  A    between atoms: _637  and  _638
REMARK  252  A    between atoms: _643  and  _644
REMARK  253  A    between atoms: _646  and  _648
REMARK  254  A    between atoms: _648  and  _649
REMARK  255  A    between atoms: _648  and  _651
REMARK  256  A    between atoms: _651  and  _652
REMARK  257  A    between atoms: _657  and  _658
REMARK  258  A    between atoms: _660  and  _662
REMARK  259  A    between atoms: _662  and  _663
REMARK  260  A    between atoms: _662  and  _665
REMARK  261  A    between atoms: _668  and  _670
REMARK  262  A    between atoms: _670  and  _671
REMARK  263  A    between atoms: _670  and  _673
REMARK  264  A    between atoms: _673  and  _674
REMARK  265  A    between atoms: _679  and  _681
REMARK  266  A    between atoms: _681  and  _682
REMARK  267  A    between atoms: _685  and  _687
REMARK  268  A    between atoms: _687  and  _688
REMARK  269  A    between atoms: _687  and  _690
REMARK  270  A    between atoms: _690  and  _691
REMARK  271  A    between atoms: _691  and  _692
REMARK  272  A    between atoms: _692  and  _693
REMARK  273  A    between atoms: _702  and  _704
REMARK  274  A    between atoms: _704  and  _705
REMARK  275  A    between atoms: _704  and  _707
REMARK  276  A    between atoms: _707  and  _708
REMARK  277  A    between atoms: _711  and  _713
REMARK  278  A    between atoms: _713  and  _714
REMARK  279  A    between atoms: _713  and  _716
REMARK  280  A    between atoms: _716  and  _717
REMARK  281  A    between atoms: _720  and  _722
REMARK  282  A    between atoms: _722  and  _723
REMARK  283  A    between atoms: _722  and  _725
REMARK  284  A    between atoms: _725  and  _726
REMARK                            x       y       z     vdW  Elec       q    Type
REMARK                         _______ _______ _______ _____ _____    ______ ____
ROOT
ATOM      1  C   ASN A   1      -3.454  23.172   6.697  0.00  0.00    +0.239 C 
ATOM      2  O   ASN A   1      -2.443  23.378   7.370  0.00  0.00    -0.274 OA
ATOM      3  N   GLY A   2      -4.645  23.497   7.202  0.00  0.00    -0.296 N 
ATOM      4  H   GLY A   2      -5.476  23.440   6.579  0.00  0.00    +0.150 HD
ENDROOT
BRANCH   1   5
ATOM      5  CA  ASN A   1      -3.433  22.589   5.306  0.00  0.00    +0.154 C 
BRANCH   5   6
ATOM      6  N   ASN A   1      -4.696  22.875   4.579  0.00  0.00    -0.238 NA
ATOM      7  H   ASN A   1      -5.078  23.841   4.524  0.00  0.00    +0.142 HD
ENDBRANCH   5   6
BRANCH   5   8
ATOM      8  CB  ASN A   1      -2.295  23.259   4.484  0.00  0.00    +0.111 C 
BRANCH   8   9
ATOM      9  CG  ASN A   1      -0.924  22.703   4.889  0.00  0.00    +0.221 C 
ATOM     10  OD1 ASN A   1      -0.829  21.505   5.170  0.00  0.00    -0.275 OA
ATOM     11  ND2 ASN A   1       0.117  23.516   4.831  0.00  0.00    -0.329 N 
ATOM     12 HD21 ASN A   1       1.072  23.153   5.027  0.00  0.00    +0.145 HD
ATOM     13 HD22 ASN A   1      -0.019  24.518   4.589  0.00  0.00    +0.145 HD
ENDBRANCH   8   9
ENDBRANCH   5   8
ENDBRANCH   1   5
BRANCH   3  14
ATOM     14  CA  GLY A   2      -4.843  23.925   8.571  0.00  0.00    +0.176 C 
BRANCH  14  15
ATOM     15  C   GLY A   2      -4.495  25.322   8.972  0.00  0.00    +0.243 C 
ATOM     16  O   GLY A   2      -5.101  25.898   9.889  0.00  0.00    -0.273 OA
ATOM     17  N   SER A   3      -3.445  25.932   8.455  0.00  0.00    -0.296 N 
ATOM     18  H   SER A   3      -2.879  25.415   7.752  0.00  0.00    +0.150 HD
BRANCH  17  19
ATOM     19  CA  SER A   3      -3.035  27.262   8.800  0.00  0.00    +0.166 C 
BRANCH  19  20
ATOM     20  C   SER A   3      -2.016  27.748   7.769  0.00  0.00    +0.229 C 
ATOM     21  O   SER A   3      -1.601  26.967   6.901  0.00  0.00    -0.286 OA
ENDBRANCH  19  20
BRANCH  19  22
ATOM     22  CB  SER A   3      -2.359  27.329  10.202  0.00  0.00    +0.165 C 
BRANCH  22  23
ATOM     23  OG  SER A   3      -1.462  26.229  10.324  0.00  0.00    -0.380 OA
ATOM     24  H   SER A   3      -1.966  25.382  10.231  0.00  0.00    +0.211 HD
ENDBRANCH  22  23
ENDBRANCH  19  22
ENDBRANCH  17  19
ENDBRANCH  14  15
ENDBRANCH   3  14
TORSDOF 10
REMARK  Name = ../refined-set-2016/1b0h/1b0h_pocket.pdb
REMARK  284 active torsions:
REMARK  status: ('A' for Active; 'I' for Inactive)
REMARK    1  A    between atoms: _1  and  _3
REMARK    2  A    between atoms: _3  and  _4
REMARK    3  A    between atoms: _3  and  _6
REMARK    4  A    between atoms: _6  and  _7
REMARK    5  A    between atoms: _12  and  _14
REMARK    6  A    between atoms: _14  and  _15
REMARK    7  A    between atoms: _17  and  _19
REMARK    8  A    between atoms: _19  and  _20
REMARK    9  A    between atoms: _19  and  _22
REMARK   10  A    between atoms: _22  and  _23
REMARK   11  A    between atoms: _25  and  _27
REMARK   12  A    between atoms: _27  and  _28
REMARK   13  A    between atoms: _27  and  _30
REMARK   14  A    between atoms: _30  and  _31
REMARK   15  A    between atoms: _31  and  _32
REMARK   16  A    between atoms: _37  and  _39
REMARK   17  A    between atoms: _39  and  _40
REMARK   18  A    between atoms: _39  and  _42
REMARK   19  A    between atoms: _42  and  _43
REMARK   20  A    between atoms: _46  and  _48
REMARK   21  A    between atoms: _48  and  _49
REMARK   22  A    between atoms: _48  and  _51
REMARK   23  A    between atoms: _51  and  _52
REMARK   24  A    between atoms: _52  and  _53
REMARK   25  A    between atoms: _56  and  _58
REMARK   26  A    between atoms: _58  and  _59
REMARK   27  A    between atoms: _61  and  _63
REMARK   28  A    between atoms: _63  and  _64
REMARK   29  A    between atoms: _63  and  _66
REMARK   30  A    between atoms: _70  and  _71
REMARK   31  A    between atoms: _76  and  _78
REMARK   32  A    between atoms: _78  and  _79
REMARK   33  A    between atoms: _78  and  _81
REMARK   34  A    between atoms: _81  and  _82
REMARK   35  A    between atoms: _82  and  _83
REMARK   36  A    between atoms: _86  and  _88
REMARK   37  A    between atoms: _88  and  _89
REMARK   38  A    between atoms: _88  and  _91
REMARK   39  A    between atoms: _91  and  _92
REMARK   40  A    between atoms: _94  and  _96
REMARK   41  A    between atoms: _96  and  _97
REMARK   42  A    between atoms: _96  and  _99
REMARK   43  A    between atoms: _99  and  _100
REMARK   44  A    between atoms: _105  and  _107
REMARK   45  A    between atoms: _107  and  _108
REMARK   46  A    between atoms: _107  and  _110
REMARK   47  A    between atoms: _110  and  _111
REMARK   48  A    between atoms: _111  and  _112
REMARK   49  A    between atoms: _112  and  _113
REMARK   50  A    between atoms: _123  and  _124
REMARK   51  A    between atoms: _129  and  _131
REMARK   52  A    between atoms: _131  and  _132
REMARK   53  A    between atoms: _131  and  _134
REMARK   54  A    between atoms: _134  and  _135
REMARK   55  A    between atoms: _140  and  _141
REMARK   56  A    between atoms: _143  and  _145
REMARK   57  A    between atoms: _145  and  _146
REMARK   58  A    between atoms: _145  and  _148
REMARK   59  A    between atoms: _148  and  _149
REMARK   60  A    between atoms: _154  and  _155
REMARK   61  A    between atoms: _157  and  _159
REMARK   62  A    between atoms: _159  and  _160
REMARK   63  A    between atoms: _159  and  _162
REMARK   64  A    between atoms: _165  and  _167
REMARK   65  A    between atoms: _167  and  _168
REMARK   66  A    between atoms: _167  and  _170
REMARK   67  A    between atoms: _170  and  _171
REMARK   68  A    between atoms: _177  and  _178
REMARK   69  A    between atoms: _183  and  _185
REMARK   70  A    between atoms: _185  and  _186
REMARK   71  A    between atoms: _185  and  _188
REMARK   72  A    between atoms: _188  and  _189
REMARK   73  A    between atoms: _191  and  _193
REMARK   74  A    between atoms: _193  and  _194
REMARK   75  A    between atoms: _193  and  _196
REMARK   76  A    between atoms: _196  and  _197
REMARK   77  A    between atoms: _197  and  _198
REMARK   78  A    between atoms: _201  and  _203
REMARK   79  A    between atoms: _203  and  _204
REMARK   80  A    between atoms: _203  and  _206
REMARK   81  A    between atoms: _206  and  _207
REMARK   82  A    between atoms: _212  and  _213
REMARK   83  A    between atoms: _215  and  _217
REMARK   84  A    between atoms: _217  and  _218
REMARK   85  A    between atoms: _217  and  _220
REMARK   86  A    between atoms: _220  and  _221
REMARK   87  A    between atoms: _226  and  _228
REMARK   88  A    between atoms: _228  and  _229
REMARK   89  A    between atoms: _228  and  _231
REMARK   90  A    between atoms: _231  and  _232
REMARK   91  A    between atoms: _237  and  _239
REMARK   92  A    between atoms: _239  and  _240
REMARK   93  A    between atoms: _239  and  _242
REMARK   94  A    between atoms: _242  and  _243
REMARK   95  A    between atoms: _243  and  _244
REMARK   96  A    between atoms: _246  and  _248
REMARK   97  A    between atoms: _248  and  _249
REMARK   98  A    between atoms: _248  and  _251
REMARK   99  A    between atoms: _251  and  _252
REMARK  100  A    between atoms: _257  and  _258
REMARK  101  A    between atoms: _260  and  _262
REMARK  102  A    between atoms: _262  and  _263
REMARK  103  A    between atoms: _262  and  _265
REMARK  104  A    between atoms: _265  and  _266
REMARK  105  A    between atoms: _269  and  _271
REMARK  106  A    between atoms: _271  and  _272
REMARK  107  A    between atoms: _271  and  _274
REMARK  108  A    between atoms: _274  and  _275
REMARK  109  A    between atoms: _275  and  _491
REMARK  110  A    between atoms: _276  and  _278
REMARK  111  A    between atoms: _278  and  _279
REMARK  112  A    between atoms: _278  and  _281
REMARK  113  A    between atoms: _281  and  _282
REMARK  114  A    between atoms: _285  and  _287
REMARK  115  A    between atoms: _287  and  _288
REMARK  116  A    between atoms: _287  and  _290
REMARK  117  A    between atoms: _290  and  _291
REMARK  118  A    between atoms: _296  and  _297
REMARK  119  A    between atoms: _299  and  _301
REMARK  120  A    between atoms: _301  and  _302
REMARK  121  A    between atoms: _301  and  _304
REMARK  122  A    between atoms: _304  and  _305
REMARK  123  A    between atoms: _310  and  _311
REMARK  124  A    between atoms: _313  and  _315
REMARK  125  A    between atoms: _315  and  _316
REMARK  126  A    between atoms: _315  and  _318
REMARK  127  A    between atoms: _318  and  _319
REMARK  128  A    between atoms: _319  and  _320
REMARK  129  A    between atoms: _323  and  _325
REMARK  130  A    between atoms: _325  and  _326
REMARK  131  A    between atoms: _325  and  _328
REMARK  132  A    between atoms: _328  and  _329
REMARK  133  A    between atoms: _334  and  _335
REMARK  134  A    between atoms: _337  and  _339
REMARK  135  A    between atoms: _339  and  _340
REMARK  136  A    between atoms: _339  and  _342
REMARK  137  A    between atoms: _342  and  _343
REMARK  138  A    between atoms: _348  and  _350
REMARK  139  A    between atoms: _350  and  _351
REMARK  140  A    between atoms: _350  and  _353
REMARK  141  A    between atoms: _353  and  _354
REMARK  142  A    between atoms: _356  and  _358
REMARK  143  A    between atoms: _358  and  _359
REMARK  144  A    between atoms: _358  and  _361
REMARK  145  A    between atoms: _361  and  _362
REMARK  146  A    between atoms: _365  and  _367
REMARK  147  A    between atoms: _367  and  _368
REMARK  148  A    between atoms: _367  and  _370
REMARK  149  A    between atoms: _370  and  _371
REMARK  150  A    between atoms: _376  and  _378
REMARK  151  A    between atoms: _378  and  _379
REMARK  152  A    between atoms: _378  and  _381
REMARK  153  A    between atoms: _381  and  _382
REMARK  154  A    between atoms: _392  and  _394
REMARK  155  A    between atoms: _394  and  _395
REMARK  156  A    between atoms: _394  and  _397
REMARK  157  A    between atoms: _397  and  _398
REMARK  158  A    between atoms: _404  and  _406
REMARK  159  A    between atoms: _406  and  _407
REMARK  160  A    between atoms: _406  and  _409
REMARK  161  A    between atoms: _409  and  _410
REMARK  162  A    between atoms: _413  and  _415
REMARK  163  A    between atoms: _415  and  _416
REMARK  164  A    between atoms: _415  and  _418
REMARK  165  A    between atoms: _418  and  _419
REMARK  166  A    between atoms: _419  and  _420
REMARK  167  A    between atoms: _420  and  _421
REMARK  168  A    between atoms: _430  and  _432
REMARK  169  A    between atoms: _432  and  _433
REMARK  170  A    between atoms: _432  and  _435
REMARK  171  A    between atoms: _435  and  _436
REMARK  172  A    between atoms: _441  and  _443
REMARK  173  A    between atoms: _443  and  _444
REMARK  174  A    between atoms: _443  and  _446
REMARK  175  A    between atoms: _446  and  _447
REMARK  176  A    between atoms: _447  and  _448
REMARK  177  A    between atoms: _448  and  _449
REMARK  178  A    between atoms: _458  and  _460
REMARK  179  A    between atoms: _460  and  _461
REMARK  180  A    between atoms: _464  and  _466
REMARK  181  A    between atoms: _466  and  _467
REMARK  182  A    between atoms: _469  and  _471
REMARK  183  A    between atoms: _471  and  _472
REMARK  184  A    between atoms: _471  and  _474
REMARK  185  A    between atoms: _474  and  _475
REMARK  186  A    between atoms: _485  and  _487
REMARK  187  A    between atoms: _487  and  _488
REMARK  188  A    between atoms: _487  and  _490
REMARK  189  A    between atoms: _490  and  _491
REMARK  190  A    between atoms: _492  and  _494
REMARK  191  A    between atoms: _494  and  _495
REMARK  192  A    between atoms: _498  and  _500
REMARK  193  A    between atoms: _500  and  _501
REMARK  194  A    between atoms: _500  and  _503
REMARK  195  A    between atoms: _503  and  _504
REMARK  196  A    between atoms: _507  and  _509
REMARK  197  A    between atoms: _509  and  _510
REMARK  198  A    between atoms: _509  and  _512
REMARK  199  A    between atoms: _512  and  _513
REMARK  200  A    between atoms: _518  and  _519
REMARK  201  A    between atoms: _521  and  _523
REMARK  202  A    between atoms: _523  and  _524
REMARK  203  A    between atoms: _523  and  _526
REMARK  204  A    between atoms: _526  and  _527
REMARK  205  A    between atoms: _529  and  _531
REMARK  206  A    between atoms: _531  and  _532
REMARK  207  A    between atoms: _531  and  _534
REMARK  208  A    between atoms: _534  and  _535
REMARK  209  A    between atoms: _541  and  _543
REMARK  210  A    between atoms: _543  and  _544
REMARK  211  A    between atoms: _543  and  _546
REMARK  212  A    between atoms: _546  and  _547
REMARK  213  A    between atoms: _550  and  _552
REMARK  214  A    between atoms: _552  and  _553
REMARK  215  A    between atoms: _552  and  _555
REMARK  216  A    between atoms: _555  and  _556
REMARK  217  A    between atoms: _556  and  _557
REMARK  218  A    between atoms: _559  and  _561
REMARK  219  A    between atoms: _561  and  _562
REMARK  220  A    between atoms: _561  and  _564
REMARK  221  A    between atoms: _564  and  _565
REMARK  222  A    between atoms: _567  and  _569
REMARK  223  A    between atoms: _569  and  _570
REMARK  224  A    between atoms: _569  and  _572
REMARK  225  A    between atoms: _572  and  _573
REMARK  226  A    between atoms: _575  and  _577
REMARK  227  A    between atoms: _577  and  _578
REMARK  228  A    between atoms: _577  and  _580
REMARK  229  A    between atoms: _580  and  _581
REMARK  230  A    between atoms: _586  and  _588
REMARK  231  A    between atoms: _588  and  _589
REMARK  232  A    between atoms: _588  and  _591
REMARK  233  A    between atoms: _591  and  _592
REMARK  234  A    between atoms: _597  and  _599
REMARK  235  A    between atoms: _599  and  _600
REMARK  236  A    between atoms: _599  and  _602
REMARK  237  A    between atoms: _602  and  _603
REMARK  238  A    between atoms: _606  and  _608
REMARK  239  A    between atoms: _608  and  _609
REMARK  240  A    between atoms: _612  and  _614
REMARK  241  A    between atoms: _614  and  _615
REMARK  242  A    between atoms: _614  and  _617
REMARK  243  A    between atoms: _617  and  _618
REMARK  244  A    between atoms: _623  and  _625
REMARK  245  A    between atoms: _625  and  _626
REMARK  246  A    between atoms: _625  and  _628
REMARK  247  A    between atoms: _628  and  _629
REMARK  248  A    between atoms: _632  and  _634
REMARK  249  A    between atoms: _634  and  _635
REMARK  250  A    between atoms: _634  and  _637
REMARK  251  A    between atoms: _637  and  _638
REMARK  252  A    between atoms: _643  and  _644
REMARK  253  A    between atoms: _646  and  _648
REMARK  254  A    between atoms: _648  and  _649
REMARK  255  A    between atoms: _648  and  _651
REMARK  256  A    between atoms: _651  and  _652
REMARK  257  A    between atoms: _657  and  _658
REMARK  258  A    between atoms: _660  and  _662
REMARK  259  A    between atoms: _662  and  _663
REMARK  260  A    between atoms: _662  and  _665
REMARK  261  A    between atoms: _668  and  _670
REMARK  262  A    between atoms: _670  and  _671
REMARK  263  A    between atoms: _670  and  _673
REMARK  264  A    between atoms: _673  and  _674
REMARK  265  A    between atoms: _679  and  _681
REMARK  266  A    between atoms: _681  and  _682
REMARK  267  A    between atoms: _685  and  _687
REMARK  268  A    between atoms: _687  and  _688
REMARK  269  A    between atoms: _687  and  _690
REMARK  270  A    between atoms: _690  and  _691
REMARK  271  A    between atoms: _691  and  _692
REMARK  272  A    between atoms: _692  and  _693
REMARK  273  A    between atoms: _702  and  _704
REMARK  274  A    between atoms: _704  and  _705
REMARK  275  A    between atoms: _704  and  _707
REMARK  276  A    between atoms: _707  and  _708
REMARK  277  A    between atoms: _711  and  _713
REMARK  278  A    between atoms: _713  and  _714
REMARK  279  A    between atoms: _713  and  _716
REMARK  280  A    between atoms: _716  and  _717
REMARK  281  A    between atoms: _720  and  _722
REMARK  282  A    between atoms: _722  and  _723
REMARK  283  A    between atoms: _722  and  _725
REMARK  284  A    between atoms: _725  and  _726
REMARK                            x       y       z     vdW  Elec       q    Type
REMARK                         _______ _______ _______ _____ _____    ______ ____
ROOT
ATOM      1  CB  GLN A   1       6.381  28.695  10.330  0.00  0.00    +0.035 C 
ENDROOT
BRANCH   1   2
ATOM      2  CA  GLN A   1       5.491  29.458   9.339  0.00  0.00    +0.134 C 
BRANCH   2   3
ATOM      3  N   GLN A   1       4.523  28.601   8.683  0.00  0.00    -0.239 NA
ATOM      4  H   GLN A   1       4.487  27.594   8.941  0.00  0.00    +0.142 HD
ENDBRANCH   2   3
BRANCH   2   5
ATOM      5  C   GLN A   1       6.514  29.992   8.315  0.00  0.00    +0.224 C 
ATOM      6  O   GLN A   1       6.967  31.135   8.401  0.00  0.00    -0.287 OA
ENDBRANCH   2   5
ENDBRANCH   1   2
BRANCH   1   7
ATOM      7  CG  GLN A   1       5.682  28.277  11.624  0.00  0.00    +0.087 C 
BRANCH   7   8
ATOM      8  CD  GLN A   1       6.667  27.336  12.348  0.00  0.00    +0.219 C 
ATOM      9  NE2 GLN A   1       7.236  27.801  13.454  0.00  0.00    -0.329 N 
ATOM     10 HE21 GLN A   1       7.914  27.211  13.977  0.00  0.00    +0.145 HD
ATOM     11 HE22 GLN A   1       7.003  28.755  13.797  0.00  0.00    +0.145 HD
ATOM     12  OE1 GLN A   1       6.903  26.204  11.886  0.00  0.00    -0.275 OA
ENDBRANCH   7   8
ENDBRANCH   1   7
TORSDOF 5
REMARK  Name = ../refined-set-2016/1b0h/1b0h_pocket.pdb
REMARK  284 active torsions:
REMARK  status: ('A' for Active; 'I' for Inactive)
REMARK    1  A    between atoms: _1  and  _3
REMARK    2  A    between atoms: _3  and  _4
REMARK    3  A    between atoms: _3  and  _6
REMARK    4  A    between atoms: _6  and  _7
REMARK    5  A    between atoms: _12  and  _14
REMARK    6  A    between atoms: _14  and  _15
REMARK    7  A    between atoms: _17  and  _19
REMARK    8  A    between atoms: _19  and  _20
REMARK    9  A    between atoms: _19  and  _22
REMARK   10  A    between atoms: _22  and  _23
REMARK   11  A    between atoms: _25  and  _27
REMARK   12  A    between atoms: _27  and  _28
REMARK   13  A    between atoms: _27  and  _30
REMARK   14  A    between atoms: _30  and  _31
REMARK   15  A    between atoms: _31  and  _32
REMARK   16  A    between atoms: _37  and  _39
REMARK   17  A    between atoms: _39  and  _40
REMARK   18  A    between atoms: _39  and  _42
REMARK   19  A    between atoms: _42  and  _43
REMARK   20  A    between atoms: _46  and  _48
REMARK   21  A    between atoms: _48  and  _49
REMARK   22  A    between atoms: _48  and  _51
REMARK   23  A    between atoms: _51  and  _52
REMARK   24  A    between atoms: _52  and  _53
REMARK   25  A    between atoms: _56  and  _58
REMARK   26  A    between atoms: _58  and  _59
REMARK   27  A    between atoms: _61  and  _63
REMARK   28  A    between atoms: _63  and  _64
REMARK   29  A    between atoms: _63  and  _66
REMARK   30  A    between atoms: _70  and  _71
REMARK   31  A    between atoms: _76  and  _78
REMARK   32  A    between atoms: _78  and  _79
REMARK   33  A    between atoms: _78  and  _81
REMARK   34  A    between atoms: _81  and  _82
REMARK   35  A    between atoms: _82  and  _83
REMARK   36  A    between atoms: _86  and  _88
REMARK   37  A    between atoms: _88  and  _89
REMARK   38  A    between atoms: _88  and  _91
REMARK   39  A    between atoms: _91  and  _92
REMARK   40  A    between atoms: _94  and  _96
REMARK   41  A    between atoms: _96  and  _97
REMARK   42  A    between atoms: _96  and  _99
REMARK   43  A    between atoms: _99  and  _100
REMARK   44  A    between atoms: _105  and  _107
REMARK   45  A    between atoms: _107  and  _108
REMARK   46  A    between atoms: _107  and  _110
REMARK   47  A    between atoms: _110  and  _111
REMARK   48  A    between atoms: _111  and  _112
REMARK   49  A    between atoms: _112  and  _113
REMARK   50  A    between atoms: _123  and  _124
REMARK   51  A    between atoms: _129  and  _131
REMARK   52  A    between atoms: _131  and  _132
REMARK   53  A    between atoms: _131  and  _134
REMARK   54  A    between atoms: _134  and  _135
REMARK   55  A    between atoms: _140  and  _141
REMARK   56  A    between atoms: _143  and  _145
REMARK   57  A    between atoms: _145  and  _146
REMARK   58  A    between atoms: _145  and  _148
REMARK   59  A    between atoms: _148  and  _149
REMARK   60  A    between atoms: _154  and  _155
REMARK   61  A    between atoms: _157  and  _159
REMARK   62  A    between atoms: _159  and  _160
REMARK   63  A    between atoms: _159  and  _162
REMARK   64  A    between atoms: _165  and  _167
REMARK   65  A    between atoms: _167  and  _168
REMARK   66  A    between atoms: _167  and  _170
REMARK   67  A    between atoms: _170  and  _171
REMARK   68  A    between atoms: _177  and  _178
REMARK   69  A    between atoms: _183  and  _185
REMARK   70  A    between atoms: _185  and  _186
REMARK   71  A    between atoms: _185  and  _188
REMARK   72  A    between atoms: _188  and  _189
REMARK   73  A    between atoms: _191  and  _193
REMARK   74  A    between atoms: _193  and  _194
REMARK   75  A    between atoms: _193  and  _196
REMARK   76  A    between atoms: _196  and  _197
REMARK   77  A    between atoms: _197  and  _198
REMARK   78  A    between atoms: _201  and  _203
REMARK   79  A    between atoms: _203  and  _204
REMARK   80  A    between atoms: _203  and  _206
REMARK   81  A    between atoms: _206  and  _207
REMARK   82  A    between atoms: _212  and  _213
REMARK   83  A    between atoms: _215  and  _217
REMARK   84  A    between atoms: _217  and  _218
REMARK   85  A    between atoms: _217  and  _220
REMARK   86  A    between atoms: _220  and  _221
REMARK   87  A    between atoms: _226  and  _228
REMARK   88  A    between atoms: _228  and  _229
REMARK   89  A    between atoms: _228  and  _231
REMARK   90  A    between atoms: _231  and  _232
REMARK   91  A    between atoms: _237  and  _239
REMARK   92  A    between atoms: _239  and  _240
REMARK   93  A    between atoms: _239  and  _242
REMARK   94  A    between atoms: _242  and  _243
REMARK   95  A    between atoms: _243  and  _244
REMARK   96  A    between atoms: _246  and  _248
REMARK   97  A    between atoms: _248  and  _249
REMARK   98  A    between atoms: _248  and  _251
REMARK   99  A    between atoms: _251  and  _252
REMARK  100  A    between atoms: _257  and  _258
REMARK  101  A    between atoms: _260  and  _262
REMARK  102  A    between atoms: _262  and  _263
REMARK  103  A    between atoms: _262  and  _265
REMARK  104  A    between atoms: _265  and  _266
REMARK  105  A    between atoms: _269  and  _271
REMARK  106  A    between atoms: _271  and  _272
REMARK  107  A    between atoms: _271  and  _274
REMARK  108  A    between atoms: _274  and  _275
REMARK  109  A    between atoms: _275  and  _491
REMARK  110  A    between atoms: _276  and  _278
REMARK  111  A    between atoms: _278  and  _279
REMARK  112  A    between atoms: _278  and  _281
REMARK  113  A    between atoms: _281  and  _282
REMARK  114  A    between atoms: _285  and  _287
REMARK  115  A    between atoms: _287  and  _288
REMARK  116  A    between atoms: _287  and  _290
REMARK  117  A    between atoms: _290  and  _291
REMARK  118  A    between atoms: _296  and  _297
REMARK  119  A    between atoms: _299  and  _301
REMARK  120  A    between atoms: _301  and  _302
REMARK  121  A    between atoms: _301  and  _304
REMARK  122  A    between atoms: _304  and  _305
REMARK  123  A    between atoms: _310  and  _311
REMARK  124  A    between atoms: _313  and  _315
REMARK  125  A    between atoms: _315  and  _316
REMARK  126  A    between atoms: _315  and  _318
REMARK  127  A    between atoms: _318  and  _319
REMARK  128  A    between atoms: _319  and  _320
REMARK  129  A    between atoms: _323  and  _325
REMARK  130  A    between atoms: _325  and  _326
REMARK  131  A    between atoms: _325  and  _328
REMARK  132  A    between atoms: _328  and  _329
REMARK  133  A    between atoms: _334  and  _335
REMARK  134  A    between atoms: _337  and  _339
REMARK  135  A    between atoms: _339  and  _340
REMARK  136  A    between atoms: _339  and  _342
REMARK  137  A    between atoms: _342  and  _343
REMARK  138  A    between atoms: _348  and  _350
REMARK  139  A    between atoms: _350  and  _351
REMARK  140  A    between atoms: _350  and  _353
REMARK  141  A    between atoms: _353  and  _354
REMARK  142  A    between atoms: _356  and  _358
REMARK  143  A    between atoms: _358  and  _359
REMARK  144  A    between atoms: _358  and  _361
REMARK  145  A    between atoms: _361  and  _362
REMARK  146  A    between atoms: _365  and  _367
REMARK  147  A    between atoms: _367  and  _368
REMARK  148  A    between atoms: _367  and  _370
REMARK  149  A    between atoms: _370  and  _371
REMARK  150  A    between atoms: _376  and  _378
REMARK  151  A    between atoms: _378  and  _379
REMARK  152  A    between atoms: _378  and  _381
REMARK  153  A    between atoms: _381  and  _382
REMARK  154  A    between atoms: _392  and  _394
REMARK  155  A    between atoms: _394  and  _395
REMARK  156  A    between atoms: _394  and  _397
REMARK  157  A    between atoms: _397  and  _398
REMARK  158  A    between atoms: _404  and  _406
REMARK  159  A    between atoms: _406  and  _407
REMARK  160  A    between atoms: _406  and  _409
REMARK  161  A    between atoms: _409  and  _410
REMARK  162  A    between atoms: _413  and  _415
REMARK  163  A    between atoms: _415  and  _416
REMARK  164  A    between atoms: _415  and  _418
REMARK  165  A    between atoms: _418  and  _419
REMARK  166  A    between atoms: _419  and  _420
REMARK  167  A    between atoms: _420  and  _421
REMARK  168  A    between atoms: _430  and  _432
REMARK  169  A    between atoms: _432  and  _433
REMARK  170  A    between atoms: _432  and  _435
REMARK  171  A    between atoms: _435  and  _436
REMARK  172  A    between atoms: _441  and  _443
REMARK  173  A    between atoms: _443  and  _444
REMARK  174  A    between atoms: _443  and  _446
REMARK  175  A    between atoms: _446  and  _447
REMARK  176  A    between atoms: _447  and  _448
REMARK  177  A    between atoms: _448  and  _449
REMARK  178  A    between atoms: _458  and  _460
REMARK  179  A    between atoms: _460  and  _461
REMARK  180  A    between atoms: _464  and  _466
REMARK  181  A    between atoms: _466  and  _467
REMARK  182  A    between atoms: _469  and  _471
REMARK  183  A    between atoms: _471  and  _472
REMARK  184  A    between atoms: _471  and  _474
REMARK  185  A    between atoms: _474  and  _475
REMARK  186  A    between atoms: _485  and  _487
REMARK  187  A    between atoms: _487  and  _488
REMARK  188  A    between atoms: _487  and  _490
REMARK  189  A    between atoms: _490  and  _491
REMARK  190  A    between atoms: _492  and  _494
REMARK  191  A    between atoms: _494  and  _495
REMARK  192  A    between atoms: _498  and  _500
REMARK  193  A    between atoms: _500  and  _501
REMARK  194  A    between atoms: _500  and  _503
REMARK  195  A    between atoms: _503  and  _504
REMARK  196  A    between atoms: _507  and  _509
REMARK  197  A    between atoms: _509  and  _510
REMARK  198  A    between atoms: _509  and  _512
REMARK  199  A    between atoms: _512  and  _513
REMARK  200  A    between atoms: _518  and  _519
REMARK  201  A    between atoms: _521  and  _523
REMARK  202  A    between atoms: _523  and  _524
REMARK  203  A    between atoms: _523  and  _526
REMARK  204  A    between atoms: _526  and  _527
REMARK  205  A    between atoms: _529  and  _531
REMARK  206  A    between atoms: _531  and  _532
REMARK  207  A    between atoms: _531  and  _534
REMARK  208  A    between atoms: _534  and  _535
REMARK  209  A    between atoms: _541  and  _543
REMARK  210  A    between atoms: _543  and  _544
REMARK  211  A    between atoms: _543  and  _546
REMARK  212  A    between atoms: _546  and  _547
REMARK  213  A    between atoms: _550  and  _552
REMARK  214  A    between atoms: _552  and  _553
REMARK  215  A    between atoms: _552  and  _555
REMARK  216  A    between atoms: _555  and  _556
REMARK  217  A    between atoms: _556  and  _557
REMARK  218  A    between atoms: _559  and  _561
REMARK  219  A    between atoms: _561  and  _562
REMARK  220  A    between atoms: _561  and  _564
REMARK  221  A    between atoms: _564  and  _565
REMARK  222  A    between atoms: _567  and  _569
REMARK  223  A    between atoms: _569  and  _570
REMARK  224  A    between atoms: _569  and  _572
REMARK  225  A    between atoms: _572  and  _573
REMARK  226  A    between atoms: _575  and  _577
REMARK  227  A    between atoms: _577  and  _578
REMARK  228  A    between atoms: _577  and  _580
REMARK  229  A    between atoms: _580  and  _581
REMARK  230  A    between atoms: _586  and  _588
REMARK  231  A    between atoms: _588  and  _589
REMARK  232  A    between atoms: _588  and  _591
REMARK  233  A    between atoms: _591  and  _592
REMARK  234  A    between atoms: _597  and  _599
REMARK  235  A    between atoms: _599  and  _600
REMARK  236  A    between atoms: _599  and  _602
REMARK  237  A    between atoms: _602  and  _603
REMARK  238  A    between atoms: _606  and  _608
REMARK  239  A    between atoms: _608  and  _609
REMARK  240  A    between atoms: _612  and  _614
REMARK  241  A    between atoms: _614  and  _615
REMARK  242  A    between atoms: _614  and  _617
REMARK  243  A    between atoms: _617  and  _618
REMARK  244  A    between atoms: _623  and  _625
REMARK  245  A    between atoms: _625  and  _626
REMARK  246  A    between atoms: _625  and  _628
REMARK  247  A    between atoms: _628  and  _629
REMARK  248  A    between atoms: _632  and  _634
REMARK  249  A    between atoms: _634  and  _635
REMARK  250  A    between atoms: _634  and  _637
REMARK  251  A    between atoms: _637  and  _638
REMARK  252  A    between atoms: _643  and  _644
REMARK  253  A    between atoms: _646  and  _648
REMARK  254  A    between atoms: _648  and  _649
REMARK  255  A    between atoms: _648  and  _651
REMARK  256  A    between atoms: _651  and  _652
REMARK  257  A    between atoms: _657  and  _658
REMARK  258  A    between atoms: _660  and  _662
REMARK  259  A    between atoms: _662  and  _663
REMARK  260  A    between atoms: _662  and  _665
REMARK  261  A    between atoms: _668  and  _670
REMARK  262  A    between atoms: _670  and  _671
REMARK  263  A    between atoms: _670  and  _673
REMARK  264  A    between atoms: _673  and  _674
REMARK  265  A    between atoms: _679  and  _681
REMARK  266  A    between atoms: _681  and  _682
REMARK  267  A    between atoms: _685  and  _687
REMARK  268  A    between atoms: _687  and  _688
REMARK  269  A    between atoms: _687  and  _690
REMARK  270  A    between atoms: _690  and  _691
REMARK  271  A    between atoms: _691  and  _692
REMARK  272  A    between atoms: _692  and  _693
REMARK  273  A    between atoms: _702  and  _704
REMARK  274  A    between atoms: _704  and  _705
REMARK  275  A    between atoms: _704  and  _707
REMARK  276  A    between atoms: _707  and  _708
REMARK  277  A    between atoms: _711  and  _713
REMARK  278  A    between atoms: _713  and  _714
REMARK  279  A    between atoms: _713  and  _716
REMARK  280  A    between atoms: _716  and  _717
REMARK  281  A    between atoms: _720  and  _722
REMARK  282  A    between atoms: _722  and  _723
REMARK  283  A    between atoms: _722  and  _725
REMARK  284  A    between atoms: _725  and  _726
REMARK                            x       y       z     vdW  Elec       q    Type
REMARK                         _______ _______ _______ _____ _____    ______ ____
ROOT
ATOM      1  C   VAL A   4       2.179  20.270   9.127  0.00  0.00    +0.244 C 
ATOM      2  N   PRO A   5       1.570  21.449   9.197  0.00  0.00    -0.272 N 
ATOM      3  CD  PRO A   5       1.081  22.132  10.415  0.00  0.00    +0.094 C 
ATOM      4  CG  PRO A   5       0.015  23.080   9.842  0.00  0.00    +0.024 C 
ATOM      5  CB  PRO A   5       0.584  23.504   8.506  0.00  0.00    +0.031 C 
ATOM      6  CA  PRO A   5       1.262  22.225   8.003  0.00  0.00    +0.152 C 
ATOM      7  O   VAL A   4       2.510  19.772   8.019  0.00  0.00    -0.273 OA
ENDROOT
BRANCH   6   8
ATOM      8  C   PRO A   5       2.530  22.539   7.226  0.00  0.00    +0.241 C 
ATOM      9  N   GLU A   6       3.565  22.994   7.928  0.00  0.00    -0.297 N 
ATOM     10  H   GLU A   6       3.460  23.136   8.953  0.00  0.00    +0.150 HD
ATOM     11  O   PRO A   5       2.589  22.382   6.006  0.00  0.00    -0.273 OA
BRANCH   9  12
ATOM     12  CA  GLU A   6       4.853  23.300   7.290  0.00  0.00    +0.149 C 
BRANCH  12  13
ATOM     13  C   GLU A   6       5.419  22.088   6.564  0.00  0.00    +0.241 C 
ATOM     14  N   SER A   7       5.390  20.943   7.239  0.00  0.00    -0.295 N 
ATOM     15  H   SER A   7       4.943  20.920   8.178  0.00  0.00    +0.150 HD
ATOM     16  O   GLU A   6       5.860  22.155   5.407  0.00  0.00    -0.273 OA
BRANCH  14  17
ATOM     17  CA  SER A   7       5.975  19.704   6.693  0.00  0.00    +0.178 C 
BRANCH  17  18
ATOM     18  C   SER A   7       5.175  19.156   5.542  0.00  0.00    +0.243 C 
ATOM     19  N   ASN A   8       3.847  19.298   5.565  0.00  0.00    -0.298 N 
ATOM     20  H   ASN A   8       3.397  19.722   6.401  0.00  0.00    +0.150 HD
ATOM     21  O   SER A   7       5.757  18.555   4.645  0.00  0.00    -0.273 OA
BRANCH  19  22
ATOM     22  CA  ASN A   8       3.009  18.871   4.441  0.00  0.00    +0.146 C 
BRANCH  22  23
ATOM     23  C   ASN A   8       3.515  19.476   3.126  0.00  0.00    +0.227 C 
ATOM     24  O   ASN A   8       3.543  18.818   2.072  0.00  0.00    -0.286 OA
ENDBRANCH  22  23
BRANCH  22  25
ATOM     25  CB  ASN A   8       1.545  19.317   4.626  0.00  0.00    +0.112 C 
BRANCH  25  26
ATOM     26  CG  ASN A   8       0.810  18.475   5.664  0.00  0.00    +0.222 C 
ATOM     27  ND2 ASN A   8      -0.328  18.954   6.149  0.00  0.00    -0.329 N 
ATOM     28 HD21 ASN A   8      -0.886  18.389   6.821  0.00  0.00    +0.145 HD
ATOM     29 HD22 ASN A   8      -0.663  19.894   5.857  0.00  0.00    +0.145 HD
ATOM     30  OD1 ASN A   8       1.264  17.372   5.966  0.00  0.00    -0.275 OA
ENDBRANCH  25  26
ENDBRANCH  22  25
ENDBRANCH  19  22
ENDBRANCH  17  18
BRANCH  17  31
ATOM     31  CB  SER A   7       6.081  18.668   7.817  0.00  0.00    +0.166 C 
BRANCH  31  32
ATOM     32  OG  SER A   7       6.955  19.189   8.817  0.00  0.00    -0.380 OA
ATOM     33  H   SER A   7       6.585  20.038   9.168  0.00  0.00    +0.211 HD
ENDBRANCH  31  32
ENDBRANCH  17  31
ENDBRANCH  14  17
ENDBRANCH  12  13
BRANCH  12  34
ATOM     34  CB  GLU A   6       5.881  23.732   8.368  0.00  0.00    +0.041 C 
BRANCH  34  35
ATOM     35  CG  GLU A   6       5.534  25.147   8.887  0.00  0.00    +0.116 C 
BRANCH  35  36
ATOM     36  CD  GLU A   6       4.333  25.133   9.818  0.00  0.00    +0.365 C 
ATOM     37  OE2 GLU A   6       3.976  24.091  10.371  0.00  0.00    -0.246 OA
ATOM     38  OE1 GLU A   6       3.679  26.188   9.995  0.00  0.00    -0.246 OA
ENDBRANCH  35  36
ENDBRANCH  34  35
ENDBRANCH  12  34
ENDBRANCH   9  12
ENDBRANCH   6   8
BRANCH   1  39
ATOM     39  CA  VAL A   4       2.494  19.535  10.395  0.00  0.00    +0.149 C 
BRANCH  39  41
ATOM     40  C   GLY A   3       4.312  20.978  11.188  0.00  0.00    +0.243 C 
ATOM     41  N   VAL A   4       3.124  20.401  11.408  0.00  0.00    -0.297 N 
ATOM     42  H   VAL A   4       2.636  20.567  12.311  0.00  0.00    +0.150 HD
ATOM     43  O   GLY A   3       4.984  20.876  10.141  0.00  0.00    -0.273 OA
BRANCH  40  44
ATOM     44  CA  GLY A   3       4.734  21.852  12.359  0.00  0.00    +0.176 C 
BRANCH  44  47
ATOM     45  C   GLU A   2       7.011  22.083  13.130  0.00  0.00    +0.241 C 
ATOM     46  O   GLU A   2       6.855  21.255  14.020  0.00  0.00    -0.273 OA
ATOM     47  N   GLY A   3       6.067  22.408  12.236  0.00  0.00    -0.295 N 
ATOM     48  H   GLY A   3       6.290  23.058  11.455  0.00  0.00    +0.150 HD
BRANCH  45  49
ATOM     49  CA  GLU A   2       8.357  22.759  13.072  0.00  0.00    +0.149 C 
BRANCH  49  51
ATOM     50  C   ILE A   1       9.639  23.914  11.410  0.00  0.00    +0.238 C 
ATOM     51  N   GLU A   2       8.452  23.816  12.051  0.00  0.00    -0.297 N 
ATOM     52  H   GLU A   2       7.655  24.449  11.836  0.00  0.00    +0.150 HD
ATOM     53  O   ILE A   1      10.661  23.234  11.683  0.00  0.00    -0.274 OA
BRANCH  50  54
ATOM     54  CA  ILE A   1       9.719  24.999  10.339  0.00  0.00    +0.145 C 
BRANCH  54  55
ATOM     55  CB  ILE A   1       9.177  24.427   9.023  0.00  0.00    +0.025 C 
ATOM     56  CG2 ILE A   1       8.982  25.547   7.992  0.00  0.00    +0.002 C 
BRANCH  55  57
ATOM     57  CG1 ILE A   1      10.086  23.301   8.477  0.00  0.00    +0.002 C 
ATOM     58  CD1 ILE A   1       9.413  22.512   7.323  0.00  0.00    +0.000 C 
ENDBRANCH  55  57
ENDBRANCH  54  55
BRANCH  54  59
ATOM     59  N   ILE A   1      11.097  25.494  10.172  0.00  0.00    -0.238 NA
ATOM     60  H   ILE A   1      11.833  24.830   9.857  0.00  0.00    +0.142 HD
ENDBRANCH  54  59
ENDBRANCH  50  54
ENDBRANCH  49  51
BRANCH  49  61
ATOM     61  CB  GLU A   2       8.748  23.352  14.446  0.00  0.00    +0.041 C 
BRANCH  61  62
ATOM     62  CG  GLU A   2       8.056  24.603  14.853  0.00  0.00    +0.116 C 
BRANCH  62  63
ATOM     63  CD  GLU A   2       8.760  25.508  15.871  0.00  0.00    +0.365 C 
ATOM     64  OE2 GLU A   2       9.291  25.080  16.898  0.00  0.00    -0.246 OA
ATOM     65  OE1 GLU A   2       8.723  26.730  15.653  0.00  0.00    -0.246 OA
ENDBRANCH  62  63
ENDBRANCH  61  62
ENDBRANCH  49  61
ENDBRANCH  45  49
ENDBRANCH  44  47
ENDBRANCH  40  44
ENDBRANCH  39  41
BRANCH  39  66
ATOM     66  CB  VAL A   4       1.290  18.776  10.999  0.00  0.00    +0.027 C 
ATOM     67  CG2 VAL A   4       1.840  17.771  12.035  0.00  0.00    +0.002 C 
ATOM     68  CG1 VAL A   4       0.472  18.015   9.945  0.00  0.00    +0.002 C 
ENDBRANCH  39  66
ENDBRANCH   1  39
TORSDOF 28
REMARK  Name = ../refined-set-2016/1b0h/1b0h_pocket.pdb
REMARK  284 active torsions:
REMARK  status: ('A' for Active; 'I' for Inactive)
REMARK    1  A    between atoms: _1  and  _3
REMARK    2  A    between atoms: _3  and  _4
REMARK    3  A    between atoms: _3  and  _6
REMARK    4  A    between atoms: _6  and  _7
REMARK    5  A    between atoms: _12  and  _14
REMARK    6  A    between atoms: _14  and  _15
REMARK    7  A    between atoms: _17  and  _19
REMARK    8  A    between atoms: _19  and  _20
REMARK    9  A    between atoms: _19  and  _22
REMARK   10  A    between atoms: _22  and  _23
REMARK   11  A    between atoms: _25  and  _27
REMARK   12  A    between atoms: _27  and  _28
REMARK   13  A    between atoms: _27  and  _30
REMARK   14  A    between atoms: _30  and  _31
REMARK   15  A    between atoms: _31  and  _32
REMARK   16  A    between atoms: _37  and  _39
REMARK   17  A    between atoms: _39  and  _40
REMARK   18  A    between atoms: _39  and  _42
REMARK   19  A    between atoms: _42  and  _43
REMARK   20  A    between atoms: _46  and  _48
REMARK   21  A    between atoms: _48  and  _49
REMARK   22  A    between atoms: _48  and  _51
REMARK   23  A    between atoms: _51  and  _52
REMARK   24  A    between atoms: _52  and  _53
REMARK   25  A    between atoms: _56  and  _58
REMARK   26  A    between atoms: _58  and  _59
REMARK   27  A    between atoms: _61  and  _63
REMARK   28  A    between atoms: _63  and  _64
REMARK   29  A    between atoms: _63  and  _66
REMARK   30  A    between atoms: _70  and  _71
REMARK   31  A    between atoms: _76  and  _78
REMARK   32  A    between atoms: _78  and  _79
REMARK   33  A    between atoms: _78  and  _81
REMARK   34  A    between atoms: _81  and  _82
REMARK   35  A    between atoms: _82  and  _83
REMARK   36  A    between atoms: _86  and  _88
REMARK   37  A    between atoms: _88  and  _89
REMARK   38  A    between atoms: _88  and  _91
REMARK   39  A    between atoms: _91  and  _92
REMARK   40  A    between atoms: _94  and  _96
REMARK   41  A    between atoms: _96  and  _97
REMARK   42  A    between atoms: _96  and  _99
REMARK   43  A    between atoms: _99  and  _100
REMARK   44  A    between atoms: _105  and  _107
REMARK   45  A    between atoms: _107  and  _108
REMARK   46  A    between atoms: _107  and  _110
REMARK   47  A    between atoms: _110  and  _111
REMARK   48  A    between atoms: _111  and  _112
REMARK   49  A    between atoms: _112  and  _113
REMARK   50  A    between atoms: _123  and  _124
REMARK   51  A    between atoms: _129  and  _131
REMARK   52  A    between atoms: _131  and  _132
REMARK   53  A    between atoms: _131  and  _134
REMARK   54  A    between atoms: _134  and  _135
REMARK   55  A    between atoms: _140  and  _141
REMARK   56  A    between atoms: _143  and  _145
REMARK   57  A    between atoms: _145  and  _146
REMARK   58  A    between atoms: _145  and  _148
REMARK   59  A    between atoms: _148  and  _149
REMARK   60  A    between atoms: _154  and  _155
REMARK   61  A    between atoms: _157  and  _159
REMARK   62  A    between atoms: _159  and  _160
REMARK   63  A    between atoms: _159  and  _162
REMARK   64  A    between atoms: _165  and  _167
REMARK   65  A    between atoms: _167  and  _168
REMARK   66  A    between atoms: _167  and  _170
REMARK   67  A    between atoms: _170  and  _171
REMARK   68  A    between atoms: _177  and  _178
REMARK   69  A    between atoms: _183  and  _185
REMARK   70  A    between atoms: _185  and  _186
REMARK   71  A    between atoms: _185  and  _188
REMARK   72  A    between atoms: _188  and  _189
REMARK   73  A    between atoms: _191  and  _193
REMARK   74  A    between atoms: _193  and  _194
REMARK   75  A    between atoms: _193  and  _196
REMARK   76  A    between atoms: _196  and  _197
REMARK   77  A    between atoms: _197  and  _198
REMARK   78  A    between atoms: _201  and  _203
REMARK   79  A    between atoms: _203  and  _204
REMARK   80  A    between atoms: _203  and  _206
REMARK   81  A    between atoms: _206  and  _207
REMARK   82  A    between atoms: _212  and  _213
REMARK   83  A    between atoms: _215  and  _217
REMARK   84  A    between atoms: _217  and  _218
REMARK   85  A    between atoms: _217  and  _220
REMARK   86  A    between atoms: _220  and  _221
REMARK   87  A    between atoms: _226  and  _228
REMARK   88  A    between atoms: _228  and  _229
REMARK   89  A    between atoms: _228  and  _231
REMARK   90  A    between atoms: _231  and  _232
REMARK   91  A    between atoms: _237  and  _239
REMARK   92  A    between atoms: _239  and  _240
REMARK   93  A    between atoms: _239  and  _242
REMARK   94  A    between atoms: _242  and  _243
REMARK   95  A    between atoms: _243  and  _244
REMARK   96  A    between atoms: _246  and  _248
REMARK   97  A    between atoms: _248  and  _249
REMARK   98  A    between atoms: _248  and  _251
REMARK   99  A    between atoms: _251  and  _252
REMARK  100  A    between atoms: _257  and  _258
REMARK  101  A    between atoms: _260  and  _262
REMARK  102  A    between atoms: _262  and  _263
REMARK  103  A    between atoms: _262  and  _265
REMARK  104  A    between atoms: _265  and  _266
REMARK  105  A    between atoms: _269  and  _271
REMARK  106  A    between atoms: _271  and  _272
REMARK  107  A    between atoms: _271  and  _274
REMARK  108  A    between atoms: _274  and  _275
REMARK  109  A    between atoms: _275  and  _491
REMARK  110  A    between atoms: _276  and  _278
REMARK  111  A    between atoms: _278  and  _279
REMARK  112  A    between atoms: _278  and  _281
REMARK  113  A    between atoms: _281  and  _282
REMARK  114  A    between atoms: _285  and  _287
REMARK  115  A    between atoms: _287  and  _288
REMARK  116  A    between atoms: _287  and  _290
REMARK  117  A    between atoms: _290  and  _291
REMARK  118  A    between atoms: _296  and  _297
REMARK  119  A    between atoms: _299  and  _301
REMARK  120  A    between atoms: _301  and  _302
REMARK  121  A    between atoms: _301  and  _304
REMARK  122  A    between atoms: _304  and  _305
REMARK  123  A    between atoms: _310  and  _311
REMARK  124  A    between atoms: _313  and  _315
REMARK  125  A    between atoms: _315  and  _316
REMARK  126  A    between atoms: _315  and  _318
REMARK  127  A    between atoms: _318  and  _319
REMARK  128  A    between atoms: _319  and  _320
REMARK  129  A    between atoms: _323  and  _325
REMARK  130  A    between atoms: _325  and  _326
REMARK  131  A    between atoms: _325  and  _328
REMARK  132  A    between atoms: _328  and  _329
REMARK  133  A    between atoms: _334  and  _335
REMARK  134  A    between atoms: _337  and  _339
REMARK  135  A    between atoms: _339  and  _340
REMARK  136  A    between atoms: _339  and  _342
REMARK  137  A    between atoms: _342  and  _343
REMARK  138  A    between atoms: _348  and  _350
REMARK  139  A    between atoms: _350  and  _351
REMARK  140  A    between atoms: _350  and  _353
REMARK  141  A    between atoms: _353  and  _354
REMARK  142  A    between atoms: _356  and  _358
REMARK  143  A    between atoms: _358  and  _359
REMARK  144  A    between atoms: _358  and  _361
REMARK  145  A    between atoms: _361  and  _362
REMARK  146  A    between atoms: _365  and  _367
REMARK  147  A    between atoms: _367  and  _368
REMARK  148  A    between atoms: _367  and  _370
REMARK  149  A    between atoms: _370  and  _371
REMARK  150  A    between atoms: _376  and  _378
REMARK  151  A    between atoms: _378  and  _379
REMARK  152  A    between atoms: _378  and  _381
REMARK  153  A    between atoms: _381  and  _382
REMARK  154  A    between atoms: _392  and  _394
REMARK  155  A    between atoms: _394  and  _395
REMARK  156  A    between atoms: _394  and  _397
REMARK  157  A    between atoms: _397  and  _398
REMARK  158  A    between atoms: _404  and  _406
REMARK  159  A    between atoms: _406  and  _407
REMARK  160  A    between atoms: _406  and  _409
REMARK  161  A    between atoms: _409  and  _410
REMARK  162  A    between atoms: _413  and  _415
REMARK  163  A    between atoms: _415  and  _416
REMARK  164  A    between atoms: _415  and  _418
REMARK  165  A    between atoms: _418  and  _419
REMARK  166  A    between atoms: _419  and  _420
REMARK  167  A    between atoms: _420  and  _421
REMARK  168  A    between atoms: _430  and  _432
REMARK  169  A    between atoms: _432  and  _433
REMARK  170  A    between atoms: _432  and  _435
REMARK  171  A    between atoms: _435  and  _436
REMARK  172  A    between atoms: _441  and  _443
REMARK  173  A    between atoms: _443  and  _444
REMARK  174  A    between atoms: _443  and  _446
REMARK  175  A    between atoms: _446  and  _447
REMARK  176  A    between atoms: _447  and  _448
REMARK  177  A    between atoms: _448  and  _449
REMARK  178  A    between atoms: _458  and  _460
REMARK  179  A    between atoms: _460  and  _461
REMARK  180  A    between atoms: _464  and  _466
REMARK  181  A    between atoms: _466  and  _467
REMARK  182  A    between atoms: _469  and  _471
REMARK  183  A    between atoms: _471  and  _472
REMARK  184  A    between atoms: _471  and  _474
REMARK  185  A    between atoms: _474  and  _475
REMARK  186  A    between atoms: _485  and  _487
REMARK  187  A    between atoms: _487  and  _488
REMARK  188  A    between atoms: _487  and  _490
REMARK  189  A    between atoms: _490  and  _491
REMARK  190  A    between atoms: _492  and  _494
REMARK  191  A    between atoms: _494  and  _495
REMARK  192  A    between atoms: _498  and  _500
REMARK  193  A    between atoms: _500  and  _501
REMARK  194  A    between atoms: _500  and  _503
REMARK  195  A    between atoms: _503  and  _504
REMARK  196  A    between atoms: _507  and  _509
REMARK  197  A    between atoms: _509  and  _510
REMARK  198  A    between atoms: _509  and  _512
REMARK  199  A    between atoms: _512  and  _513
REMARK  200  A    between atoms: _518  and  _519
REMARK  201  A    between atoms: _521  and  _523
REMARK  202  A    between atoms: _523  and  _524
REMARK  203  A    between atoms: _523  and  _526
REMARK  204  A    between atoms: _526  and  _527
REMARK  205  A    between atoms: _529  and  _531
REMARK  206  A    between atoms: _531  and  _532
REMARK  207  A    between atoms: _531  and  _534
REMARK  208  A    between atoms: _534  and  _535
REMARK  209  A    between atoms: _541  and  _543
REMARK  210  A    between atoms: _543  and  _544
REMARK  211  A    between atoms: _543  and  _546
REMARK  212  A    between atoms: _546  and  _547
REMARK  213  A    between atoms: _550  and  _552
REMARK  214  A    between atoms: _552  and  _553
REMARK  215  A    between atoms: _552  and  _555
REMARK  216  A    between atoms: _555  and  _556
REMARK  217  A    between atoms: _556  and  _557
REMARK  218  A    between atoms: _559  and  _561
REMARK  219  A    between atoms: _561  and  _562
REMARK  220  A    between atoms: _561  and  _564
REMARK  221  A    between atoms: _564  and  _565
REMARK  222  A    between atoms: _567  and  _569
REMARK  223  A    between atoms: _569  and  _570
REMARK  224  A    between atoms: _569  and  _572
REMARK  225  A    between atoms: _572  and  _573
REMARK  226  A    between atoms: _575  and  _577
REMARK  227  A    between atoms: _577  and  _578
REMARK  228  A    between atoms: _577  and  _580
REMARK  229  A    between atoms: _580  and  _581
REMARK  230  A    between atoms: _586  and  _588
REMARK  231  A    between atoms: _588  and  _589
REMARK  232  A    between atoms: _588  and  _591
REMARK  233  A    between atoms: _591  and  _592
REMARK  234  A    between atoms: _597  and  _599
REMARK  235  A    between atoms: _599  and  _600
REMARK  236  A    between atoms: _599  and  _602
REMARK  237  A    between atoms: _602  and  _603
REMARK  238  A    between atoms: _606  and  _608
REMARK  239  A    between atoms: _608  and  _609
REMARK  240  A    between atoms: _612  and  _614
REMARK  241  A    between atoms: _614  and  _615
REMARK  242  A    between atoms: _614  and  _617
REMARK  243  A    between atoms: _617  and  _618
REMARK  244  A    between atoms: _623  and  _625
REMARK  245  A    between atoms: _625  and  _626
REMARK  246  A    between atoms: _625  and  _628
REMARK  247  A    between atoms: _628  and  _629
REMARK  248  A    between atoms: _632  and  _634
REMARK  249  A    between atoms: _634  and  _635
REMARK  250  A    between atoms: _634  and  _637
REMARK  251  A    between atoms: _637  and  _638
REMARK  252  A    between atoms: _643  and  _644
REMARK  253  A    between atoms: _646  and  _648
REMARK  254  A    between atoms: _648  and  _649
REMARK  255  A    between atoms: _648  and  _651
REMARK  256  A    between atoms: _651  and  _652
REMARK  257  A    between atoms: _657  and  _658
REMARK  258  A    between atoms: _660  and  _662
REMARK  259  A    between atoms: _662  and  _663
REMARK  260  A    between atoms: _662  and  _665
REMARK  261  A    between atoms: _668  and  _670
REMARK  262  A    between atoms: _670  and  _671
REMARK  263  A    between atoms: _670  and  _673
REMARK  264  A    between atoms: _673  and  _674
REMARK  265  A    between atoms: _679  and  _681
REMARK  266  A    between atoms: _681  and  _682
REMARK  267  A    between atoms: _685  and  _687
REMARK  268  A    between atoms: _687  and  _688
REMARK  269  A    between atoms: _687  and  _690
REMARK  270  A    between atoms: _690  and  _691
REMARK  271  A    between atoms: _691  and  _692
REMARK  272  A    between atoms: _692  and  _693
REMARK  273  A    between atoms: _702  and  _704
REMARK  274  A    between atoms: _704  and  _705
REMARK  275  A    between atoms: _704  and  _707
REMARK  276  A    between atoms: _707  and  _708
REMARK  277  A    between atoms: _711  and  _713
REMARK  278  A    between atoms: _713  and  _714
REMARK  279  A    between atoms: _713  and  _716
REMARK  280  A    between atoms: _716  and  _717
REMARK  281  A    between atoms: _720  and  _722
REMARK  282  A    between atoms: _722  and  _723
REMARK  283  A    between atoms: _722  and  _725
REMARK  284  A    between atoms: _725  and  _726
REMARK                            x       y       z     vdW  Elec       q    Type
REMARK                         _______ _______ _______ _____ _____    ______ ____
ROOT
ATOM      1  NE  ARG A   1       4.961  14.560   3.957  0.00  0.00    -0.265 N 
ATOM      2  CZ  ARG A   1       4.370  15.169   4.979  0.00  0.00    +0.342 C 
ATOM      3  NH2 ARG A   1       5.043  15.550   6.068  0.00  0.00    -0.292 N 
ATOM      4 HH21 ARG A   1       4.545  16.024   6.848  0.00  0.00    +0.255 HD
ATOM      5 HH22 ARG A   1       6.065  15.372   6.136  0.00  0.00    +0.255 HD
ATOM      6  NH1 ARG A   1       3.064  15.417   4.992  0.00  0.00    -0.292 N 
ATOM      7 HH11 ARG A   1       2.634  15.896   5.809  0.00  0.00    +0.255 HD
ATOM      8 HH12 ARG A   1       2.473  15.132   4.185  0.00  0.00    +0.255 HD
ATOM      9  HE  ARG A   1       4.358  14.263   3.163  0.00  0.00    +0.259 HD
ENDROOT
BRANCH   1  10
ATOM     10  CD  ARG A   1       6.379  14.276   3.859  0.00  0.00    +0.174 C 
BRANCH  10  11
ATOM     11  CG  ARG A   1       7.224  15.512   3.451  0.00  0.00    +0.045 C 
BRANCH  11  12
ATOM     12  CB  ARG A   1       6.758  15.989   2.069  0.00  0.00    +0.029 C 
BRANCH  12  13
ATOM     13  CA  ARG A   1       7.617  17.110   1.448  0.00  0.00    +0.133 C 
BRANCH  13  14
ATOM     14  N   ARG A   1       7.367  18.403   2.097  0.00  0.00    -0.239 NA
ATOM     15  H   ARG A   1       6.542  18.513   2.720  0.00  0.00    +0.142 HD
ENDBRANCH  13  14
BRANCH  13  16
ATOM     16  C   ARG A   1       7.430  17.172  -0.062  0.00  0.00    +0.224 C 
ATOM     17  O   ARG A   1       8.084  16.410  -0.789  0.00  0.00    -0.287 OA
ENDBRANCH  13  16
ENDBRANCH  12  13
ENDBRANCH  11  12
ENDBRANCH  10  11
ENDBRANCH   1  10
TORSDOF 6
REMARK  Name = ../refined-set-2016/1b0h/1b0h_pocket.pdb
REMARK  284 active torsions:
REMARK  status: ('A' for Active; 'I' for Inactive)
REMARK    1  A    between atoms: _1  and  _3
REMARK    2  A    between atoms: _3  and  _4
REMARK    3  A    between atoms: _3  and  _6
REMARK    4  A    between atoms: _6  and  _7
REMARK    5  A    between atoms: _12  and  _14
REMARK    6  A    between atoms: _14  and  _15
REMARK    7  A    between atoms: _17  and  _19
REMARK    8  A    between atoms: _19  and  _20
REMARK    9  A    between atoms: _19  and  _22
REMARK   10  A    between atoms: _22  and  _23
REMARK   11  A    between atoms: _25  and  _27
REMARK   12  A    between atoms: _27  and  _28
REMARK   13  A    between atoms: _27  and  _30
REMARK   14  A    between atoms: _30  and  _31
REMARK   15  A    between atoms: _31  and  _32
REMARK   16  A    between atoms: _37  and  _39
REMARK   17  A    between atoms: _39  and  _40
REMARK   18  A    between atoms: _39  and  _42
REMARK   19  A    between atoms: _42  and  _43
REMARK   20  A    between atoms: _46  and  _48
REMARK   21  A    between atoms: _48  and  _49
REMARK   22  A    between atoms: _48  and  _51
REMARK   23  A    between atoms: _51  and  _52
REMARK   24  A    between atoms: _52  and  _53
REMARK   25  A    between atoms: _56  and  _58
REMARK   26  A    between atoms: _58  and  _59
REMARK   27  A    between atoms: _61  and  _63
REMARK   28  A    between atoms: _63  and  _64
REMARK   29  A    between atoms: _63  and  _66
REMARK   30  A    between atoms: _70  and  _71
REMARK   31  A    between atoms: _76  and  _78
REMARK   32  A    between atoms: _78  and  _79
REMARK   33  A    between atoms: _78  and  _81
REMARK   34  A    between atoms: _81  and  _82
REMARK   35  A    between atoms: _82  and  _83
REMARK   36  A    between atoms: _86  and  _88
REMARK   37  A    between atoms: _88  and  _89
REMARK   38  A    between atoms: _88  and  _91
REMARK   39  A    between atoms: _91  and  _92
REMARK   40  A    between atoms: _94  and  _96
REMARK   41  A    between atoms: _96  and  _97
REMARK   42  A    between atoms: _96  and  _99
REMARK   43  A    between atoms: _99  and  _100
REMARK   44  A    between atoms: _105  and  _107
REMARK   45  A    between atoms: _107  and  _108
REMARK   46  A    between atoms: _107  and  _110
REMARK   47  A    between atoms: _110  and  _111
REMARK   48  A    between atoms: _111  and  _112
REMARK   49  A    between atoms: _112  and  _113
REMARK   50  A    between atoms: _123  and  _124
REMARK   51  A    between atoms: _129  and  _131
REMARK   52  A    between atoms: _131  and  _132
REMARK   53  A    between atoms: _131  and  _134
REMARK   54  A    between atoms: _134  and  _135
REMARK   55  A    between atoms: _140  and  _141
REMARK   56  A    between atoms: _143  and  _145
REMARK   57  A    between atoms: _145  and  _146
REMARK   58  A    between atoms: _145  and  _148
REMARK   59  A    between atoms: _148  and  _149
REMARK   60  A    between atoms: _154  and  _155
REMARK   61  A    between atoms: _157  and  _159
REMARK   62  A    between atoms: _159  and  _160
REMARK   63  A    between atoms: _159  and  _162
REMARK   64  A    between atoms: _165  and  _167
REMARK   65  A    between atoms: _167  and  _168
REMARK   66  A    between atoms: _167  and  _170
REMARK   67  A    between atoms: _170  and  _171
REMARK   68  A    between atoms: _177  and  _178
REMARK   69  A    between atoms: _183  and  _185
REMARK   70  A    between atoms: _185  and  _186
REMARK   71  A    between atoms: _185  and  _188
REMARK   72  A    between atoms: _188  and  _189
REMARK   73  A    between atoms: _191  and  _193
REMARK   74  A    between atoms: _193  and  _194
REMARK   75  A    between atoms: _193  and  _196
REMARK   76  A    between atoms: _196  and  _197
REMARK   77  A    between atoms: _197  and  _198
REMARK   78  A    between atoms: _201  and  _203
REMARK   79  A    between atoms: _203  and  _204
REMARK   80  A    between atoms: _203  and  _206
REMARK   81  A    between atoms: _206  and  _207
REMARK   82  A    between atoms: _212  and  _213
REMARK   83  A    between atoms: _215  and  _217
REMARK   84  A    between atoms: _217  and  _218
REMARK   85  A    between atoms: _217  and  _220
REMARK   86  A    between atoms: _220  and  _221
REMARK   87  A    between atoms: _226  and  _228
REMARK   88  A    between atoms: _228  and  _229
REMARK   89  A    between atoms: _228  and  _231
REMARK   90  A    between atoms: _231  and  _232
REMARK   91  A    between atoms: _237  and  _239
REMARK   92  A    between atoms: _239  and  _240
REMARK   93  A    between atoms: _239  and  _242
REMARK   94  A    between atoms: _242  and  _243
REMARK   95  A    between atoms: _243  and  _244
REMARK   96  A    between atoms: _246  and  _248
REMARK   97  A    between atoms: _248  and  _249
REMARK   98  A    between atoms: _248  and  _251
REMARK   99  A    between atoms: _251  and  _252
REMARK  100  A    between atoms: _257  and  _258
REMARK  101  A    between atoms: _260  and  _262
REMARK  102  A    between atoms: _262  and  _263
REMARK  103  A    between atoms: _262  and  _265
REMARK  104  A    between atoms: _265  and  _266
REMARK  105  A    between atoms: _269  and  _271
REMARK  106  A    between atoms: _271  and  _272
REMARK  107  A    between atoms: _271  and  _274
REMARK  108  A    between atoms: _274  and  _275
REMARK  109  A    between atoms: _275  and  _491
REMARK  110  A    between atoms: _276  and  _278
REMARK  111  A    between atoms: _278  and  _279
REMARK  112  A    between atoms: _278  and  _281
REMARK  113  A    between atoms: _281  and  _282
REMARK  114  A    between atoms: _285  and  _287
REMARK  115  A    between atoms: _287  and  _288
REMARK  116  A    between atoms: _287  and  _290
REMARK  117  A    between atoms: _290  and  _291
REMARK  118  A    between atoms: _296  and  _297
REMARK  119  A    between atoms: _299  and  _301
REMARK  120  A    between atoms: _301  and  _302
REMARK  121  A    between atoms: _301  and  _304
REMARK  122  A    between atoms: _304  and  _305
REMARK  123  A    between atoms: _310  and  _311
REMARK  124  A    between atoms: _313  and  _315
REMARK  125  A    between atoms: _315  and  _316
REMARK  126  A    between atoms: _315  and  _318
REMARK  127  A    between atoms: _318  and  _319
REMARK  128  A    between atoms: _319  and  _320
REMARK  129  A    between atoms: _323  and  _325
REMARK  130  A    between atoms: _325  and  _326
REMARK  131  A    between atoms: _325  and  _328
REMARK  132  A    between atoms: _328  and  _329
REMARK  133  A    between atoms: _334  and  _335
REMARK  134  A    between atoms: _337  and  _339
REMARK  135  A    between atoms: _339  and  _340
REMARK  136  A    between atoms: _339  and  _342
REMARK  137  A    between atoms: _342  and  _343
REMARK  138  A    between atoms: _348  and  _350
REMARK  139  A    between atoms: _350  and  _351
REMARK  140  A    between atoms: _350  and  _353
REMARK  141  A    between atoms: _353  and  _354
REMARK  142  A    between atoms: _356  and  _358
REMARK  143  A    between atoms: _358  and  _359
REMARK  144  A    between atoms: _358  and  _361
REMARK  145  A    between atoms: _361  and  _362
REMARK  146  A    between atoms: _365  and  _367
REMARK  147  A    between atoms: _367  and  _368
REMARK  148  A    between atoms: _367  and  _370
REMARK  149  A    between atoms: _370  and  _371
REMARK  150  A    between atoms: _376  and  _378
REMARK  151  A    between atoms: _378  and  _379
REMARK  152  A    between atoms: _378  and  _381
REMARK  153  A    between atoms: _381  and  _382
REMARK  154  A    between atoms: _392  and  _394
REMARK  155  A    between atoms: _394  and  _395
REMARK  156  A    between atoms: _394  and  _397
REMARK  157  A    between atoms: _397  and  _398
REMARK  158  A    between atoms: _404  and  _406
REMARK  159  A    between atoms: _406  and  _407
REMARK  160  A    between atoms: _406  and  _409
REMARK  161  A    between atoms: _409  and  _410
REMARK  162  A    between atoms: _413  and  _415
REMARK  163  A    between atoms: _415  and  _416
REMARK  164  A    between atoms: _415  and  _418
REMARK  165  A    between atoms: _418  and  _419
REMARK  166  A    between atoms: _419  and  _420
REMARK  167  A    between atoms: _420  and  _421
REMARK  168  A    between atoms: _430  and  _432
REMARK  169  A    between atoms: _432  and  _433
REMARK  170  A    between atoms: _432  and  _435
REMARK  171  A    between atoms: _435  and  _436
REMARK  172  A    between atoms: _441  and  _443
REMARK  173  A    between atoms: _443  and  _444
REMARK  174  A    between atoms: _443  and  _446
REMARK  175  A    between atoms: _446  and  _447
REMARK  176  A    between atoms: _447  and  _448
REMARK  177  A    between atoms: _448  and  _449
REMARK  178  A    between atoms: _458  and  _460
REMARK  179  A    between atoms: _460  and  _461
REMARK  180  A    between atoms: _464  and  _466
REMARK  181  A    between atoms: _466  and  _467
REMARK  182  A    between atoms: _469  and  _471
REMARK  183  A    between atoms: _471  and  _472
REMARK  184  A    between atoms: _471  and  _474
REMARK  185  A    between atoms: _474  and  _475
REMARK  186  A    between atoms: _485  and  _487
REMARK  187  A    between atoms: _487  and  _488
REMARK  188  A    between atoms: _487  and  _490
REMARK  189  A    between atoms: _490  and  _491
REMARK  190  A    between atoms: _492  and  _494
REMARK  191  A    between atoms: _494  and  _495
REMARK  192  A    between atoms: _498  and  _500
REMARK  193  A    between atoms: _500  and  _501
REMARK  194  A    between atoms: _500  and  _503
REMARK  195  A    between atoms: _503  and  _504
REMARK  196  A    between atoms: _507  and  _509
REMARK  197  A    between atoms: _509  and  _510
REMARK  198  A    between atoms: _509  and  _512
REMARK  199  A    between atoms: _512  and  _513
REMARK  200  A    between atoms: _518  and  _519
REMARK  201  A    between atoms: _521  and  _523
REMARK  202  A    between atoms: _523  and  _524
REMARK  203  A    between atoms: _523  and  _526
REMARK  204  A    between atoms: _526  and  _527
REMARK  205  A    between atoms: _529  and  _531
REMARK  206  A    between atoms: _531  and  _532
REMARK  207  A    between atoms: _531  and  _534
REMARK  208  A    between atoms: _534  and  _535
REMARK  209  A    between atoms: _541  and  _543
REMARK  210  A    between atoms: _543  and  _544
REMARK  211  A    between atoms: _543  and  _546
REMARK  212  A    between atoms: _546  and  _547
REMARK  213  A    between atoms: _550  and  _552
REMARK  214  A    between atoms: _552  and  _553
REMARK  215  A    between atoms: _552  and  _555
REMARK  216  A    between atoms: _555  and  _556
REMARK  217  A    between atoms: _556  and  _557
REMARK  218  A    between atoms: _559  and  _561
REMARK  219  A    between atoms: _561  and  _562
REMARK  220  A    between atoms: _561  and  _564
REMARK  221  A    between atoms: _564  and  _565
REMARK  222  A    between atoms: _567  and  _569
REMARK  223  A    between atoms: _569  and  _570
REMARK  224  A    between atoms: _569  and  _572
REMARK  225  A    between atoms: _572  and  _573
REMARK  226  A    between atoms: _575  and  _577
REMARK  227  A    between atoms: _577  and  _578
REMARK  228  A    between atoms: _577  and  _580
REMARK  229  A    between atoms: _580  and  _581
REMARK  230  A    between atoms: _586  and  _588
REMARK  231  A    between atoms: _588  and  _589
REMARK  232  A    between atoms: _588  and  _591
REMARK  233  A    between atoms: _591  and  _592
REMARK  234  A    between atoms: _597  and  _599
REMARK  235  A    between atoms: _599  and  _600
REMARK  236  A    between atoms: _599  and  _602
REMARK  237  A    between atoms: _602  and  _603
REMARK  238  A    between atoms: _606  and  _608
REMARK  239  A    between atoms: _608  and  _609
REMARK  240  A    between atoms: _612  and  _614
REMARK  241  A    between atoms: _614  and  _615
REMARK  242  A    between atoms: _614  and  _617
REMARK  243  A    between atoms: _617  and  _618
REMARK  244  A    between atoms: _623  and  _625
REMARK  245  A    between atoms: _625  and  _626
REMARK  246  A    between atoms: _625  and  _628
REMARK  247  A    between atoms: _628  and  _629
REMARK  248  A    between atoms: _632  and  _634
REMARK  249  A    between atoms: _634  and  _635
REMARK  250  A    between atoms: _634  and  _637
REMARK  251  A    between atoms: _637  and  _638
REMARK  252  A    between atoms: _643  and  _644
REMARK  253  A    between atoms: _646  and  _648
REMARK  254  A    between atoms: _648  and  _649
REMARK  255  A    between atoms: _648  and  _651
REMARK  256  A    between atoms: _651  and  _652
REMARK  257  A    between atoms: _657  and  _658
REMARK  258  A    between atoms: _660  and  _662
REMARK  259  A    between atoms: _662  and  _663
REMARK  260  A    between atoms: _662  and  _665
REMARK  261  A    between atoms: _668  and  _670
REMARK  262  A    between atoms: _670  and  _671
REMARK  263  A    between atoms: _670  and  _673
REMARK  264  A    between atoms: _673  and  _674
REMARK  265  A    between atoms: _679  and  _681
REMARK  266  A    between atoms: _681  and  _682
REMARK  267  A    between atoms: _685  and  _687
REMARK  268  A    between atoms: _687  and  _688
REMARK  269  A    between atoms: _687  and  _690
REMARK  270  A    between atoms: _690  and  _691
REMARK  271  A    between atoms: _691  and  _692
REMARK  272  A    between atoms: _692  and  _693
REMARK  273  A    between atoms: _702  and  _704
REMARK  274  A    between atoms: _704  and  _705
REMARK  275  A    between atoms: _704  and  _707
REMARK  276  A    between atoms: _707  and  _708
REMARK  277  A    between atoms: _711  and  _713
REMARK  278  A    between atoms: _713  and  _714
REMARK  279  A    between atoms: _713  and  _716
REMARK  280  A    between atoms: _716  and  _717
REMARK  281  A    between atoms: _720  and  _722
REMARK  282  A    between atoms: _722  and  _723
REMARK  283  A    between atoms: _722  and  _725
REMARK  284  A    between atoms: _725  and  _726
REMARK                            x       y       z     vdW  Elec       q    Type
REMARK                         _______ _______ _______ _____ _____    ______ ____
ROOT
ATOM      1  CA  TYR A   2      14.802  21.866  14.990  0.00  0.00    +0.141 C 
ENDROOT
BRANCH   1   4
ATOM      2  C   PRO A   1      13.938  23.860  16.131  0.00  0.00    +0.239 C 
ATOM      3  O   PRO A   1      13.573  23.183  17.088  0.00  0.00    -0.274 OA
ATOM      4  N   TYR A   2      14.513  23.277  15.071  0.00  0.00    -0.298 N 
ATOM      5  H   TYR A   2      14.766  23.876  14.259  0.00  0.00    +0.150 HD
BRANCH   2   7
ATOM      6  N   PRO A   1      14.550  25.951  14.997  0.00  0.00    -0.210 NA
ATOM      7  CA  PRO A   1      13.753  25.375  16.075  0.00  0.00    +0.149 C 
ATOM      8  CB  PRO A   1      12.324  25.727  15.680  0.00  0.00    +0.028 C 
ATOM      9  CG  PRO A   1      12.345  25.928  14.190  0.00  0.00    +0.021 C 
ATOM     10  CD  PRO A   1      13.724  26.526  13.920  0.00  0.00    +0.089 C 
ENDBRANCH   2   7
ENDBRANCH   1   4
BRANCH   1  11
ATOM     11  C   TYR A   2      16.294  21.568  15.038  0.00  0.00    +0.227 C 
ATOM     12  O   TYR A   2      16.729  20.467  14.710  0.00  0.00    -0.286 OA
ENDBRANCH   1  11
BRANCH   1  13
ATOM     13  CB  TYR A   2      14.109  21.252  13.801  0.00  0.00    +0.054 C 
BRANCH  13  14
ATOM     14  CG  TYR A   2      12.897  20.382  14.086  0.00  0.00    -0.020 A 
ATOM     15  CD2 TYR A   2      13.024  19.144  14.679  0.00  0.00    -0.001 A 
ATOM     16  CE2 TYR A   2      11.948  18.308  14.933  0.00  0.00    +0.036 A 
ATOM     17  CZ  TYR A   2      10.688  18.741  14.572  0.00  0.00    +0.134 A 
ATOM     18  CE1 TYR A   2      10.523  19.973  13.963  0.00  0.00    +0.036 A 
ATOM     19  CD1 TYR A   2      11.616  20.816  13.739  0.00  0.00    -0.001 A 
BRANCH  17  20
ATOM     20  OH  TYR A   2       9.591  17.934  14.729  0.00  0.00    -0.506 OA
ATOM     21  HH  TYR A   2       9.712  17.108  14.197  0.00  0.00    +0.292 HD
ENDBRANCH  17  20
ENDBRANCH  13  14
ENDBRANCH   1  13
TORSDOF 6
REMARK  Name = ../refined-set-2016/1b0h/1b0h_pocket.pdb
REMARK  284 active torsions:
REMARK  status: ('A' for Active; 'I' for Inactive)
REMARK    1  A    between atoms: _1  and  _3
REMARK    2  A    between atoms: _3  and  _4
REMARK    3  A    between atoms: _3  and  _6
REMARK    4  A    between atoms: _6  and  _7
REMARK    5  A    between atoms: _12  and  _14
REMARK    6  A    between atoms: _14  and  _15
REMARK    7  A    between atoms: _17  and  _19
REMARK    8  A    between atoms: _19  and  _20
REMARK    9  A    between atoms: _19  and  _22
REMARK   10  A    between atoms: _22  and  _23
REMARK   11  A    between atoms: _25  and  _27
REMARK   12  A    between atoms: _27  and  _28
REMARK   13  A    between atoms: _27  and  _30
REMARK   14  A    between atoms: _30  and  _31
REMARK   15  A    between atoms: _31  and  _32
REMARK   16  A    between atoms: _37  and  _39
REMARK   17  A    between atoms: _39  and  _40
REMARK   18  A    between atoms: _39  and  _42
REMARK   19  A    between atoms: _42  and  _43
REMARK   20  A    between atoms: _46  and  _48
REMARK   21  A    between atoms: _48  and  _49
REMARK   22  A    between atoms: _48  and  _51
REMARK   23  A    between atoms: _51  and  _52
REMARK   24  A    between atoms: _52  and  _53
REMARK   25  A    between atoms: _56  and  _58
REMARK   26  A    between atoms: _58  and  _59
REMARK   27  A    between atoms: _61  and  _63
REMARK   28  A    between atoms: _63  and  _64
REMARK   29  A    between atoms: _63  and  _66
REMARK   30  A    between atoms: _70  and  _71
REMARK   31  A    between atoms: _76  and  _78
REMARK   32  A    between atoms: _78  and  _79
REMARK   33  A    between atoms: _78  and  _81
REMARK   34  A    between atoms: _81  and  _82
REMARK   35  A    between atoms: _82  and  _83
REMARK   36  A    between atoms: _86  and  _88
REMARK   37  A    between atoms: _88  and  _89
REMARK   38  A    between atoms: _88  and  _91
REMARK   39  A    between atoms: _91  and  _92
REMARK   40  A    between atoms: _94  and  _96
REMARK   41  A    between atoms: _96  and  _97
REMARK   42  A    between atoms: _96  and  _99
REMARK   43  A    between atoms: _99  and  _100
REMARK   44  A    between atoms: _105  and  _107
REMARK   45  A    between atoms: _107  and  _108
REMARK   46  A    between atoms: _107  and  _110
REMARK   47  A    between atoms: _110  and  _111
REMARK   48  A    between atoms: _111  and  _112
REMARK   49  A    between atoms: _112  and  _113
REMARK   50  A    between atoms: _123  and  _124
REMARK   51  A    between atoms: _129  and  _131
REMARK   52  A    between atoms: _131  and  _132
REMARK   53  A    between atoms: _131  and  _134
REMARK   54  A    between atoms: _134  and  _135
REMARK   55  A    between atoms: _140  and  _141
REMARK   56  A    between atoms: _143  and  _145
REMARK   57  A    between atoms: _145  and  _146
REMARK   58  A    between atoms: _145  and  _148
REMARK   59  A    between atoms: _148  and  _149
REMARK   60  A    between atoms: _154  and  _155
REMARK   61  A    between atoms: _157  and  _159
REMARK   62  A    between atoms: _159  and  _160
REMARK   63  A    between atoms: _159  and  _162
REMARK   64  A    between atoms: _165  and  _167
REMARK   65  A    between atoms: _167  and  _168
REMARK   66  A    between atoms: _167  and  _170
REMARK   67  A    between atoms: _170  and  _171
REMARK   68  A    between atoms: _177  and  _178
REMARK   69  A    between atoms: _183  and  _185
REMARK   70  A    between atoms: _185  and  _186
REMARK   71  A    between atoms: _185  and  _188
REMARK   72  A    between atoms: _188  and  _189
REMARK   73  A    between atoms: _191  and  _193
REMARK   74  A    between atoms: _193  and  _194
REMARK   75  A    between atoms: _193  and  _196
REMARK   76  A    between atoms: _196  and  _197
REMARK   77  A    between atoms: _197  and  _198
REMARK   78  A    between atoms: _201  and  _203
REMARK   79  A    between atoms: _203  and  _204
REMARK   80  A    between atoms: _203  and  _206
REMARK   81  A    between atoms: _206  and  _207
REMARK   82  A    between atoms: _212  and  _213
REMARK   83  A    between atoms: _215  and  _217
REMARK   84  A    between atoms: _217  and  _218
REMARK   85  A    between atoms: _217  and  _220
REMARK   86  A    between atoms: _220  and  _221
REMARK   87  A    between atoms: _226  and  _228
REMARK   88  A    between atoms: _228  and  _229
REMARK   89  A    between atoms: _228  and  _231
REMARK   90  A    between atoms: _231  and  _232
REMARK   91  A    between atoms: _237  and  _239
REMARK   92  A    between atoms: _239  and  _240
REMARK   93  A    between atoms: _239  and  _242
REMARK   94  A    between atoms: _242  and  _243
REMARK   95  A    between atoms: _243  and  _244
REMARK   96  A    between atoms: _246  and  _248
REMARK   97  A    between atoms: _248  and  _249
REMARK   98  A    between atoms: _248  and  _251
REMARK   99  A    between atoms: _251  and  _252
REMARK  100  A    between atoms: _257  and  _258
REMARK  101  A    between atoms: _260  and  _262
REMARK  102  A    between atoms: _262  and  _263
REMARK  103  A    between atoms: _262  and  _265
REMARK  104  A    between atoms: _265  and  _266
REMARK  105  A    between atoms: _269  and  _271
REMARK  106  A    between atoms: _271  and  _272
REMARK  107  A    between atoms: _271  and  _274
REMARK  108  A    between atoms: _274  and  _275
REMARK  109  A    between atoms: _275  and  _491
REMARK  110  A    between atoms: _276  and  _278
REMARK  111  A    between atoms: _278  and  _279
REMARK  112  A    between atoms: _278  and  _281
REMARK  113  A    between atoms: _281  and  _282
REMARK  114  A    between atoms: _285  and  _287
REMARK  115  A    between atoms: _287  and  _288
REMARK  116  A    between atoms: _287  and  _290
REMARK  117  A    between atoms: _290  and  _291
REMARK  118  A    between atoms: _296  and  _297
REMARK  119  A    between atoms: _299  and  _301
REMARK  120  A    between atoms: _301  and  _302
REMARK  121  A    between atoms: _301  and  _304
REMARK  122  A    between atoms: _304  and  _305
REMARK  123  A    between atoms: _310  and  _311
REMARK  124  A    between atoms: _313  and  _315
REMARK  125  A    between atoms: _315  and  _316
REMARK  126  A    between atoms: _315  and  _318
REMARK  127  A    between atoms: _318  and  _319
REMARK  128  A    between atoms: _319  and  _320
REMARK  129  A    between atoms: _323  and  _325
REMARK  130  A    between atoms: _325  and  _326
REMARK  131  A    between atoms: _325  and  _328
REMARK  132  A    between atoms: _328  and  _329
REMARK  133  A    between atoms: _334  and  _335
REMARK  134  A    between atoms: _337  and  _339
REMARK  135  A    between atoms: _339  and  _340
REMARK  136  A    between atoms: _339  and  _342
REMARK  137  A    between atoms: _342  and  _343
REMARK  138  A    between atoms: _348  and  _350
REMARK  139  A    between atoms: _350  and  _351
REMARK  140  A    between atoms: _350  and  _353
REMARK  141  A    between atoms: _353  and  _354
REMARK  142  A    between atoms: _356  and  _358
REMARK  143  A    between atoms: _358  and  _359
REMARK  144  A    between atoms: _358  and  _361
REMARK  145  A    between atoms: _361  and  _362
REMARK  146  A    between atoms: _365  and  _367
REMARK  147  A    between atoms: _367  and  _368
REMARK  148  A    between atoms: _367  and  _370
REMARK  149  A    between atoms: _370  and  _371
REMARK  150  A    between atoms: _376  and  _378
REMARK  151  A    between atoms: _378  and  _379
REMARK  152  A    between atoms: _378  and  _381
REMARK  153  A    between atoms: _381  and  _382
REMARK  154  A    between atoms: _392  and  _394
REMARK  155  A    between atoms: _394  and  _395
REMARK  156  A    between atoms: _394  and  _397
REMARK  157  A    between atoms: _397  and  _398
REMARK  158  A    between atoms: _404  and  _406
REMARK  159  A    between atoms: _406  and  _407
REMARK  160  A    between atoms: _406  and  _409
REMARK  161  A    between atoms: _409  and  _410
REMARK  162  A    between atoms: _413  and  _415
REMARK  163  A    between atoms: _415  and  _416
REMARK  164  A    between atoms: _415  and  _418
REMARK  165  A    between atoms: _418  and  _419
REMARK  166  A    between atoms: _419  and  _420
REMARK  167  A    between atoms: _420  and  _421
REMARK  168  A    between atoms: _430  and  _432
REMARK  169  A    between atoms: _432  and  _433
REMARK  170  A    between atoms: _432  and  _435
REMARK  171  A    between atoms: _435  and  _436
REMARK  172  A    between atoms: _441  and  _443
REMARK  173  A    between atoms: _443  and  _444
REMARK  174  A    between atoms: _443  and  _446
REMARK  175  A    between atoms: _446  and  _447
REMARK  176  A    between atoms: _447  and  _448
REMARK  177  A    between atoms: _448  and  _449
REMARK  178  A    between atoms: _458  and  _460
REMARK  179  A    between atoms: _460  and  _461
REMARK  180  A    between atoms: _464  and  _466
REMARK  181  A    between atoms: _466  and  _467
REMARK  182  A    between atoms: _469  and  _471
REMARK  183  A    between atoms: _471  and  _472
REMARK  184  A    between atoms: _471  and  _474
REMARK  185  A    between atoms: _474  and  _475
REMARK  186  A    between atoms: _485  and  _487
REMARK  187  A    between atoms: _487  and  _488
REMARK  188  A    between atoms: _487  and  _490
REMARK  189  A    between atoms: _490  and  _491
REMARK  190  A    between atoms: _492  and  _494
REMARK  191  A    between atoms: _494  and  _495
REMARK  192  A    between atoms: _498  and  _500
REMARK  193  A    between atoms: _500  and  _501
REMARK  194  A    between atoms: _500  and  _503
REMARK  195  A    between atoms: _503  and  _504
REMARK  196  A    between atoms: _507  and  _509
REMARK  197  A    between atoms: _509  and  _510
REMARK  198  A    between atoms: _509  and  _512
REMARK  199  A    between atoms: _512  and  _513
REMARK  200  A    between atoms: _518  and  _519
REMARK  201  A    between atoms: _521  and  _523
REMARK  202  A    between atoms: _523  and  _524
REMARK  203  A    between atoms: _523  and  _526
REMARK  204  A    between atoms: _526  and  _527
REMARK  205  A    between atoms: _529  and  _531
REMARK  206  A    between atoms: _531  and  _532
REMARK  207  A    between atoms: _531  and  _534
REMARK  208  A    between atoms: _534  and  _535
REMARK  209  A    between atoms: _541  and  _543
REMARK  210  A    between atoms: _543  and  _544
REMARK  211  A    between atoms: _543  and  _546
REMARK  212  A    between atoms: _546  and  _547
REMARK  213  A    between atoms: _550  and  _552
REMARK  214  A    between atoms: _552  and  _553
REMARK  215  A    between atoms: _552  and  _555
REMARK  216  A    between atoms: _555  and  _556
REMARK  217  A    between atoms: _556  and  _557
REMARK  218  A    between atoms: _559  and  _561
REMARK  219  A    between atoms: _561  and  _562
REMARK  220  A    between atoms: _561  and  _564
REMARK  221  A    between atoms: _564  and  _565
REMARK  222  A    between atoms: _567  and  _569
REMARK  223  A    between atoms: _569  and  _570
REMARK  224  A    between atoms: _569  and  _572
REMARK  225  A    between atoms: _572  and  _573
REMARK  226  A    between atoms: _575  and  _577
REMARK  227  A    between atoms: _577  and  _578
REMARK  228  A    between atoms: _577  and  _580
REMARK  229  A    between atoms: _580  and  _581
REMARK  230  A    between atoms: _586  and  _588
REMARK  231  A    between atoms: _588  and  _589
REMARK  232  A    between atoms: _588  and  _591
REMARK  233  A    between atoms: _591  and  _592
REMARK  234  A    between atoms: _597  and  _599
REMARK  235  A    between atoms: _599  and  _600
REMARK  236  A    between atoms: _599  and  _602
REMARK  237  A    between atoms: _602  and  _603
REMARK  238  A    between atoms: _606  and  _608
REMARK  239  A    between atoms: _608  and  _609
REMARK  240  A    between atoms: _612  and  _614
REMARK  241  A    between atoms: _614  and  _615
REMARK  242  A    between atoms: _614  and  _617
REMARK  243  A    between atoms: _617  and  _618
REMARK  244  A    between atoms: _623  and  _625
REMARK  245  A    between atoms: _625  and  _626
REMARK  246  A    between atoms: _625  and  _628
REMARK  247  A    between atoms: _628  and  _629
REMARK  248  A    between atoms: _632  and  _634
REMARK  249  A    between atoms: _634  and  _635
REMARK  250  A    between atoms: _634  and  _637
REMARK  251  A    between atoms: _637  and  _638
REMARK  252  A    between atoms: _643  and  _644
REMARK  253  A    between atoms: _646  and  _648
REMARK  254  A    between atoms: _648  and  _649
REMARK  255  A    between atoms: _648  and  _651
REMARK  256  A    between atoms: _651  and  _652
REMARK  257  A    between atoms: _657  and  _658
REMARK  258  A    between atoms: _660  and  _662
REMARK  259  A    between atoms: _662  and  _663
REMARK  260  A    between atoms: _662  and  _665
REMARK  261  A    between atoms: _668  and  _670
REMARK  262  A    between atoms: _670  and  _671
REMARK  263  A    between atoms: _670  and  _673
REMARK  264  A    between atoms: _673  and  _674
REMARK  265  A    between atoms: _679  and  _681
REMARK  266  A    between atoms: _681  and  _682
REMARK  267  A    between atoms: _685  and  _687
REMARK  268  A    between atoms: _687  and  _688
REMARK  269  A    between atoms: _687  and  _690
REMARK  270  A    between atoms: _690  and  _691
REMARK  271  A    between atoms: _691  and  _692
REMARK  272  A    between atoms: _692  and  _693
REMARK  273  A    between atoms: _702  and  _704
REMARK  274  A    between atoms: _704  and  _705
REMARK  275  A    between atoms: _704  and  _707
REMARK  276  A    between atoms: _707  and  _708
REMARK  277  A    between atoms: _711  and  _713
REMARK  278  A    between atoms: _713  and  _714
REMARK  279  A    between atoms: _713  and  _716
REMARK  280  A    between atoms: _716  and  _717
REMARK  281  A    between atoms: _720  and  _722
REMARK  282  A    between atoms: _722  and  _723
REMARK  283  A    between atoms: _722  and  _725
REMARK  284  A    between atoms: _725  and  _726
REMARK                            x       y       z     vdW  Elec       q    Type
REMARK                         _______ _______ _______ _____ _____    ______ ____
ROOT
ATOM      1  CG  TYR A   1      15.760  16.063  13.629  0.00  0.00    -0.020 A 
ATOM      2  CD2 TYR A   1      14.630  15.614  14.306  0.00  0.00    -0.001 A 
ATOM      3  CE2 TYR A   1      13.886  14.545  13.837  0.00  0.00    +0.036 A 
ATOM      4  CZ  TYR A   1      14.264  13.935  12.640  0.00  0.00    +0.134 A 
ATOM      5  CE1 TYR A   1      15.382  14.353  11.961  0.00  0.00    +0.036 A 
ATOM      6  CD1 TYR A   1      16.129  15.430  12.447  0.00  0.00    -0.001 A 
ENDROOT
BRANCH   4   7
ATOM      7  OH  TYR A   1      13.520  12.888  12.170  0.00  0.00    -0.506 OA
ATOM      8  HH  TYR A   1      13.180  13.106  11.266  0.00  0.00    +0.292 HD
ENDBRANCH   4   7
BRANCH   1   9
ATOM      9  CB  TYR A   1      16.553  17.243  14.181  0.00  0.00    +0.051 C 
BRANCH   9  10
ATOM     10  CA  TYR A   1      17.203  16.882  15.528  0.00  0.00    +0.137 C 
BRANCH  10  11
ATOM     11  N   TYR A   1      17.425  18.108  16.296  0.00  0.00    -0.239 NA
ATOM     12  H   TYR A   1      17.181  19.025  15.871  0.00  0.00    +0.142 HD
ENDBRANCH  10  11
BRANCH  10  13
ATOM     13  C   TYR A   1      18.556  16.195  15.300  0.00  0.00    +0.224 C 
ATOM     14  O   TYR A   1      18.649  14.972  15.319  0.00  0.00    -0.287 OA
ENDBRANCH  10  13
ENDBRANCH   9  10
ENDBRANCH   1   9
TORSDOF 5
REMARK  Name = ../refined-set-2016/1b0h/1b0h_pocket.pdb
REMARK  284 active torsions:
REMARK  status: ('A' for Active; 'I' for Inactive)
REMARK    1  A    between atoms: _1  and  _3
REMARK    2  A    between atoms: _3  and  _4
REMARK    3  A    between atoms: _3  and  _6
REMARK    4  A    between atoms: _6  and  _7
REMARK    5  A    between atoms: _12  and  _14
REMARK    6  A    between atoms: _14  and  _15
REMARK    7  A    between atoms: _17  and  _19
REMARK    8  A    between atoms: _19  and  _20
REMARK    9  A    between atoms: _19  and  _22
REMARK   10  A    between atoms: _22  and  _23
REMARK   11  A    between atoms: _25  and  _27
REMARK   12  A    between atoms: _27  and  _28
REMARK   13  A    between atoms: _27  and  _30
REMARK   14  A    between atoms: _30  and  _31
REMARK   15  A    between atoms: _31  and  _32
REMARK   16  A    between atoms: _37  and  _39
REMARK   17  A    between atoms: _39  and  _40
REMARK   18  A    between atoms: _39  and  _42
REMARK   19  A    between atoms: _42  and  _43
REMARK   20  A    between atoms: _46  and  _48
REMARK   21  A    between atoms: _48  and  _49
REMARK   22  A    between atoms: _48  and  _51
REMARK   23  A    between atoms: _51  and  _52
REMARK   24  A    between atoms: _52  and  _53
REMARK   25  A    between atoms: _56  and  _58
REMARK   26  A    between atoms: _58  and  _59
REMARK   27  A    between atoms: _61  and  _63
REMARK   28  A    between atoms: _63  and  _64
REMARK   29  A    between atoms: _63  and  _66
REMARK   30  A    between atoms: _70  and  _71
REMARK   31  A    between atoms: _76  and  _78
REMARK   32  A    between atoms: _78  and  _79
REMARK   33  A    between atoms: _78  and  _81
REMARK   34  A    between atoms: _81  and  _82
REMARK   35  A    between atoms: _82  and  _83
REMARK   36  A    between atoms: _86  and  _88
REMARK   37  A    between atoms: _88  and  _89
REMARK   38  A    between atoms: _88  and  _91
REMARK   39  A    between atoms: _91  and  _92
REMARK   40  A    between atoms: _94  and  _96
REMARK   41  A    between atoms: _96  and  _97
REMARK   42  A    between atoms: _96  and  _99
REMARK   43  A    between atoms: _99  and  _100
REMARK   44  A    between atoms: _105  and  _107
REMARK   45  A    between atoms: _107  and  _108
REMARK   46  A    between atoms: _107  and  _110
REMARK   47  A    between atoms: _110  and  _111
REMARK   48  A    between atoms: _111  and  _112
REMARK   49  A    between atoms: _112  and  _113
REMARK   50  A    between atoms: _123  and  _124
REMARK   51  A    between atoms: _129  and  _131
REMARK   52  A    between atoms: _131  and  _132
REMARK   53  A    between atoms: _131  and  _134
REMARK   54  A    between atoms: _134  and  _135
REMARK   55  A    between atoms: _140  and  _141
REMARK   56  A    between atoms: _143  and  _145
REMARK   57  A    between atoms: _145  and  _146
REMARK   58  A    between atoms: _145  and  _148
REMARK   59  A    between atoms: _148  and  _149
REMARK   60  A    between atoms: _154  and  _155
REMARK   61  A    between atoms: _157  and  _159
REMARK   62  A    between atoms: _159  and  _160
REMARK   63  A    between atoms: _159  and  _162
REMARK   64  A    between atoms: _165  and  _167
REMARK   65  A    between atoms: _167  and  _168
REMARK   66  A    between atoms: _167  and  _170
REMARK   67  A    between atoms: _170  and  _171
REMARK   68  A    between atoms: _177  and  _178
REMARK   69  A    between atoms: _183  and  _185
REMARK   70  A    between atoms: _185  and  _186
REMARK   71  A    between atoms: _185  and  _188
REMARK   72  A    between atoms: _188  and  _189
REMARK   73  A    between atoms: _191  and  _193
REMARK   74  A    between atoms: _193  and  _194
REMARK   75  A    between atoms: _193  and  _196
REMARK   76  A    between atoms: _196  and  _197
REMARK   77  A    between atoms: _197  and  _198
REMARK   78  A    between atoms: _201  and  _203
REMARK   79  A    between atoms: _203  and  _204
REMARK   80  A    between atoms: _203  and  _206
REMARK   81  A    between atoms: _206  and  _207
REMARK   82  A    between atoms: _212  and  _213
REMARK   83  A    between atoms: _215  and  _217
REMARK   84  A    between atoms: _217  and  _218
REMARK   85  A    between atoms: _217  and  _220
REMARK   86  A    between atoms: _220  and  _221
REMARK   87  A    between atoms: _226  and  _228
REMARK   88  A    between atoms: _228  and  _229
REMARK   89  A    between atoms: _228  and  _231
REMARK   90  A    between atoms: _231  and  _232
REMARK   91  A    between atoms: _237  and  _239
REMARK   92  A    between atoms: _239  and  _240
REMARK   93  A    between atoms: _239  and  _242
REMARK   94  A    between atoms: _242  and  _243
REMARK   95  A    between atoms: _243  and  _244
REMARK   96  A    between atoms: _246  and  _248
REMARK   97  A    between atoms: _248  and  _249
REMARK   98  A    between atoms: _248  and  _251
REMARK   99  A    between atoms: _251  and  _252
REMARK  100  A    between atoms: _257  and  _258
REMARK  101  A    between atoms: _260  and  _262
REMARK  102  A    between atoms: _262  and  _263
REMARK  103  A    between atoms: _262  and  _265
REMARK  104  A    between atoms: _265  and  _266
REMARK  105  A    between atoms: _269  and  _271
REMARK  106  A    between atoms: _271  and  _272
REMARK  107  A    between atoms: _271  and  _274
REMARK  108  A    between atoms: _274  and  _275
REMARK  109  A    between atoms: _275  and  _491
REMARK  110  A    between atoms: _276  and  _278
REMARK  111  A    between atoms: _278  and  _279
REMARK  112  A    between atoms: _278  and  _281
REMARK  113  A    between atoms: _281  and  _282
REMARK  114  A    between atoms: _285  and  _287
REMARK  115  A    between atoms: _287  and  _288
REMARK  116  A    between atoms: _287  and  _290
REMARK  117  A    between atoms: _290  and  _291
REMARK  118  A    between atoms: _296  and  _297
REMARK  119  A    between atoms: _299  and  _301
REMARK  120  A    between atoms: _301  and  _302
REMARK  121  A    between atoms: _301  and  _304
REMARK  122  A    between atoms: _304  and  _305
REMARK  123  A    between atoms: _310  and  _311
REMARK  124  A    between atoms: _313  and  _315
REMARK  125  A    between atoms: _315  and  _316
REMARK  126  A    between atoms: _315  and  _318
REMARK  127  A    between atoms: _318  and  _319
REMARK  128  A    between atoms: _319  and  _320
REMARK  129  A    between atoms: _323  and  _325
REMARK  130  A    between atoms: _325  and  _326
REMARK  131  A    between atoms: _325  and  _328
REMARK  132  A    between atoms: _328  and  _329
REMARK  133  A    between atoms: _334  and  _335
REMARK  134  A    between atoms: _337  and  _339
REMARK  135  A    between atoms: _339  and  _340
REMARK  136  A    between atoms: _339  and  _342
REMARK  137  A    between atoms: _342  and  _343
REMARK  138  A    between atoms: _348  and  _350
REMARK  139  A    between atoms: _350  and  _351
REMARK  140  A    between atoms: _350  and  _353
REMARK  141  A    between atoms: _353  and  _354
REMARK  142  A    between atoms: _356  and  _358
REMARK  143  A    between atoms: _358  and  _359
REMARK  144  A    between atoms: _358  and  _361
REMARK  145  A    between atoms: _361  and  _362
REMARK  146  A    between atoms: _365  and  _367
REMARK  147  A    between atoms: _367  and  _368
REMARK  148  A    between atoms: _367  and  _370
REMARK  149  A    between atoms: _370  and  _371
REMARK  150  A    between atoms: _376  and  _378
REMARK  151  A    between atoms: _378  and  _379
REMARK  152  A    between atoms: _378  and  _381
REMARK  153  A    between atoms: _381  and  _382
REMARK  154  A    between atoms: _392  and  _394
REMARK  155  A    between atoms: _394  and  _395
REMARK  156  A    between atoms: _394  and  _397
REMARK  157  A    between atoms: _397  and  _398
REMARK  158  A    between atoms: _404  and  _406
REMARK  159  A    between atoms: _406  and  _407
REMARK  160  A    between atoms: _406  and  _409
REMARK  161  A    between atoms: _409  and  _410
REMARK  162  A    between atoms: _413  and  _415
REMARK  163  A    between atoms: _415  and  _416
REMARK  164  A    between atoms: _415  and  _418
REMARK  165  A    between atoms: _418  and  _419
REMARK  166  A    between atoms: _419  and  _420
REMARK  167  A    between atoms: _420  and  _421
REMARK  168  A    between atoms: _430  and  _432
REMARK  169  A    between atoms: _432  and  _433
REMARK  170  A    between atoms: _432  and  _435
REMARK  171  A    between atoms: _435  and  _436
REMARK  172  A    between atoms: _441  and  _443
REMARK  173  A    between atoms: _443  and  _444
REMARK  174  A    between atoms: _443  and  _446
REMARK  175  A    between atoms: _446  and  _447
REMARK  176  A    between atoms: _447  and  _448
REMARK  177  A    between atoms: _448  and  _449
REMARK  178  A    between atoms: _458  and  _460
REMARK  179  A    between atoms: _460  and  _461
REMARK  180  A    between atoms: _464  and  _466
REMARK  181  A    between atoms: _466  and  _467
REMARK  182  A    between atoms: _469  and  _471
REMARK  183  A    between atoms: _471  and  _472
REMARK  184  A    between atoms: _471  and  _474
REMARK  185  A    between atoms: _474  and  _475
REMARK  186  A    between atoms: _485  and  _487
REMARK  187  A    between atoms: _487  and  _488
REMARK  188  A    between atoms: _487  and  _490
REMARK  189  A    between atoms: _490  and  _491
REMARK  190  A    between atoms: _492  and  _494
REMARK  191  A    between atoms: _494  and  _495
REMARK  192  A    between atoms: _498  and  _500
REMARK  193  A    between atoms: _500  and  _501
REMARK  194  A    between atoms: _500  and  _503
REMARK  195  A    between atoms: _503  and  _504
REMARK  196  A    between atoms: _507  and  _509
REMARK  197  A    between atoms: _509  and  _510
REMARK  198  A    between atoms: _509  and  _512
REMARK  199  A    between atoms: _512  and  _513
REMARK  200  A    between atoms: _518  and  _519
REMARK  201  A    between atoms: _521  and  _523
REMARK  202  A    between atoms: _523  and  _524
REMARK  203  A    between atoms: _523  and  _526
REMARK  204  A    between atoms: _526  and  _527
REMARK  205  A    between atoms: _529  and  _531
REMARK  206  A    between atoms: _531  and  _532
REMARK  207  A    between atoms: _531  and  _534
REMARK  208  A    between atoms: _534  and  _535
REMARK  209  A    between atoms: _541  and  _543
REMARK  210  A    between atoms: _543  and  _544
REMARK  211  A    between atoms: _543  and  _546
REMARK  212  A    between atoms: _546  and  _547
REMARK  213  A    between atoms: _550  and  _552
REMARK  214  A    between atoms: _552  and  _553
REMARK  215  A    between atoms: _552  and  _555
REMARK  216  A    between atoms: _555  and  _556
REMARK  217  A    between atoms: _556  and  _557
REMARK  218  A    between atoms: _559  and  _561
REMARK  219  A    between atoms: _561  and  _562
REMARK  220  A    between atoms: _561  and  _564
REMARK  221  A    between atoms: _564  and  _565
REMARK  222  A    between atoms: _567  and  _569
REMARK  223  A    between atoms: _569  and  _570
REMARK  224  A    between atoms: _569  and  _572
REMARK  225  A    between atoms: _572  and  _573
REMARK  226  A    between atoms: _575  and  _577
REMARK  227  A    between atoms: _577  and  _578
REMARK  228  A    between atoms: _577  and  _580
REMARK  229  A    between atoms: _580  and  _581
REMARK  230  A    between atoms: _586  and  _588
REMARK  231  A    between atoms: _588  and  _589
REMARK  232  A    between atoms: _588  and  _591
REMARK  233  A    between atoms: _591  and  _592
REMARK  234  A    between atoms: _597  and  _599
REMARK  235  A    between atoms: _599  and  _600
REMARK  236  A    between atoms: _599  and  _602
REMARK  237  A    between atoms: _602  and  _603
REMARK  238  A    between atoms: _606  and  _608
REMARK  239  A    between atoms: _608  and  _609
REMARK  240  A    between atoms: _612  and  _614
REMARK  241  A    between atoms: _614  and  _615
REMARK  242  A    between atoms: _614  and  _617
REMARK  243  A    between atoms: _617  and  _618
REMARK  244  A    between atoms: _623  and  _625
REMARK  245  A    between atoms: _625  and  _626
REMARK  246  A    between atoms: _625  and  _628
REMARK  247  A    between atoms: _628  and  _629
REMARK  248  A    between atoms: _632  and  _634
REMARK  249  A    between atoms: _634  and  _635
REMARK  250  A    between atoms: _634  and  _637
REMARK  251  A    between atoms: _637  and  _638
REMARK  252  A    between atoms: _643  and  _644
REMARK  253  A    between atoms: _646  and  _648
REMARK  254  A    between atoms: _648  and  _649
REMARK  255  A    between atoms: _648  and  _651
REMARK  256  A    between atoms: _651  and  _652
REMARK  257  A    between atoms: _657  and  _658
REMARK  258  A    between atoms: _660  and  _662
REMARK  259  A    between atoms: _662  and  _663
REMARK  260  A    between atoms: _662  and  _665
REMARK  261  A    between atoms: _668  and  _670
REMARK  262  A    between atoms: _670  and  _671
REMARK  263  A    between atoms: _670  and  _673
REMARK  264  A    between atoms: _673  and  _674
REMARK  265  A    between atoms: _679  and  _681
REMARK  266  A    between atoms: _681  and  _682
REMARK  267  A    between atoms: _685  and  _687
REMARK  268  A    between atoms: _687  and  _688
REMARK  269  A    between atoms: _687  and  _690
REMARK  270  A    between atoms: _690  and  _691
REMARK  271  A    between atoms: _691  and  _692
REMARK  272  A    between atoms: _692  and  _693
REMARK  273  A    between atoms: _702  and  _704
REMARK  274  A    between atoms: _704  and  _705
REMARK  275  A    between atoms: _704  and  _707
REMARK  276  A    between atoms: _707  and  _708
REMARK  277  A    between atoms: _711  and  _713
REMARK  278  A    between atoms: _713  and  _714
REMARK  279  A    between atoms: _713  and  _716
REMARK  280  A    between atoms: _716  and  _717
REMARK  281  A    between atoms: _720  and  _722
REMARK  282  A    between atoms: _722  and  _723
REMARK  283  A    between atoms: _722  and  _725
REMARK  284  A    between atoms: _725  and  _726
REMARK                            x       y       z     vdW  Elec       q    Type
REMARK                         _______ _______ _______ _____ _____    ______ ____
ROOT
ATOM      1  CA  HIS A   2      12.044  14.785   8.238  0.00  0.00    +0.155 C 
ENDROOT
BRANCH   1   2
ATOM      2  C   HIS A   2      12.521  16.016   7.520  0.00  0.00    +0.244 C 
ATOM      3  N   PRO A   3      11.762  17.106   7.455  0.00  0.00    -0.272 N 
ATOM      4  CD  PRO A   3      10.391  17.265   8.005  0.00  0.00    +0.094 C 
ATOM      5  CG  PRO A   3       9.810  18.324   7.057  0.00  0.00    +0.024 C 
ATOM      6  CB  PRO A   3      10.976  19.280   6.905  0.00  0.00    +0.031 C 
ATOM      7  CA  PRO A   3      12.134  18.293   6.688  0.00  0.00    +0.152 C 
ATOM      8  O   HIS A   2      13.630  15.995   6.995  0.00  0.00    -0.273 OA
BRANCH   7   9
ATOM      9  C   PRO A   3      13.418  18.936   7.148  0.00  0.00    +0.241 C 
ATOM     10  N   SER A   4      13.724  18.840   8.452  0.00  0.00    -0.296 N 
ATOM     11  H   SER A   4      13.116  18.308   9.107  0.00  0.00    +0.150 HD
ATOM     12  O   PRO A   3      14.161  19.473   6.303  0.00  0.00    -0.273 OA
BRANCH  10  13
ATOM     13  CA  SER A   4      14.941  19.508   8.924  0.00  0.00    +0.166 C 
BRANCH  13  14
ATOM     14  C   SER A   4      16.203  18.971   8.261  0.00  0.00    +0.229 C 
ATOM     15  O   SER A   4      17.167  19.730   8.159  0.00  0.00    -0.286 OA
ENDBRANCH  13  14
BRANCH  13  16
ATOM     16  CB  SER A   4      15.054  19.443  10.455  0.00  0.00    +0.165 C 
BRANCH  16  17
ATOM     17  OG  SER A   4      15.337  18.103  10.870  0.00  0.00    -0.380 OA
ATOM     18  H   SER A   4      14.607  17.505  10.572  0.00  0.00    +0.211 HD
ENDBRANCH  16  17
ENDBRANCH  13  16
ENDBRANCH  10  13
ENDBRANCH   7   9
ENDBRANCH   1   2
BRANCH   1  20
ATOM     19  C   VAL A   1      12.045  12.923   6.613  0.00  0.00    +0.238 C 
ATOM     20  N   HIS A   2      12.546  13.534   7.651  0.00  0.00    -0.297 N 
ATOM     21  H   HIS A   2      13.374  13.097   8.104  0.00  0.00    +0.150 HD
ATOM     22  O   VAL A   1      11.221  13.538   5.924  0.00  0.00    -0.274 OA
BRANCH  19  23
ATOM     23  CA  VAL A   1      12.502  11.537   6.136  0.00  0.00    +0.145 C 
BRANCH  23  24
ATOM     24  CB  VAL A   1      11.377  10.504   6.103  0.00  0.00    +0.025 C 
ATOM     25  CG2 VAL A   1      10.805  10.283   7.496  0.00  0.00    +0.002 C 
ATOM     26  CG1 VAL A   1      11.954   9.174   5.603  0.00  0.00    +0.002 C 
ENDBRANCH  23  24
BRANCH  23  27
ATOM     27  N   VAL A   1      13.580  10.985   6.987  0.00  0.00    -0.238 NA
ATOM     28  H   VAL A   1      13.379  10.315   7.756  0.00  0.00    +0.142 HD
ENDBRANCH  23  27
ENDBRANCH  19  23
ENDBRANCH   1  20
BRANCH   1  29
ATOM     29  CB  HIS A   2      12.549  14.767   9.700  0.00  0.00    +0.076 C 
BRANCH  29  30
ATOM     30  CG  HIS A   2      11.915  15.837  10.529  0.00  0.00    +0.082 A 
ATOM     31  CD2 HIS A   2      10.676  15.898  11.063  0.00  0.00    +0.115 A 
ATOM     32  NE2 HIS A   2      10.567  17.102  11.721  0.00  0.00    -0.221 NA
ATOM     33  CE1 HIS A   2      11.706  17.779  11.542  0.00  0.00    +0.199 A 
ATOM     34  ND1 HIS A   2      12.528  17.043  10.825  0.00  0.00    -0.227 NA
ENDBRANCH  29  30
ENDBRANCH   1  29
TORSDOF 12
REMARK  Name = ../refined-set-2016/1b0h/1b0h_pocket.pdb
REMARK  284 active torsions:
REMARK  status: ('A' for Active; 'I' for Inactive)
REMARK    1  A    between atoms: _1  and  _3
REMARK    2  A    between atoms: _3  and  _4
REMARK    3  A    between atoms: _3  and  _6
REMARK    4  A    between atoms: _6  and  _7
REMARK    5  A    between atoms: _12  and  _14
REMARK    6  A    between atoms: _14  and  _15
REMARK    7  A    between atoms: _17  and  _19
REMARK    8  A    between atoms: _19  and  _20
REMARK    9  A    between atoms: _19  and  _22
REMARK   10  A    between atoms: _22  and  _23
REMARK   11  A    between atoms: _25  and  _27
REMARK   12  A    between atoms: _27  and  _28
REMARK   13  A    between atoms: _27  and  _30
REMARK   14  A    between atoms: _30  and  _31
REMARK   15  A    between atoms: _31  and  _32
REMARK   16  A    between atoms: _37  and  _39
REMARK   17  A    between atoms: _39  and  _40
REMARK   18  A    between atoms: _39  and  _42
REMARK   19  A    between atoms: _42  and  _43
REMARK   20  A    between atoms: _46  and  _48
REMARK   21  A    between atoms: _48  and  _49
REMARK   22  A    between atoms: _48  and  _51
REMARK   23  A    between atoms: _51  and  _52
REMARK   24  A    between atoms: _52  and  _53
REMARK   25  A    between atoms: _56  and  _58
REMARK   26  A    between atoms: _58  and  _59
REMARK   27  A    between atoms: _61  and  _63
REMARK   28  A    between atoms: _63  and  _64
REMARK   29  A    between atoms: _63  and  _66
REMARK   30  A    between atoms: _70  and  _71
REMARK   31  A    between atoms: _76  and  _78
REMARK   32  A    between atoms: _78  and  _79
REMARK   33  A    between atoms: _78  and  _81
REMARK   34  A    between atoms: _81  and  _82
REMARK   35  A    between atoms: _82  and  _83
REMARK   36  A    between atoms: _86  and  _88
REMARK   37  A    between atoms: _88  and  _89
REMARK   38  A    between atoms: _88  and  _91
REMARK   39  A    between atoms: _91  and  _92
REMARK   40  A    between atoms: _94  and  _96
REMARK   41  A    between atoms: _96  and  _97
REMARK   42  A    between atoms: _96  and  _99
REMARK   43  A    between atoms: _99  and  _100
REMARK   44  A    between atoms: _105  and  _107
REMARK   45  A    between atoms: _107  and  _108
REMARK   46  A    between atoms: _107  and  _110
REMARK   47  A    between atoms: _110  and  _111
REMARK   48  A    between atoms: _111  and  _112
REMARK   49  A    between atoms: _112  and  _113
REMARK   50  A    between atoms: _123  and  _124
REMARK   51  A    between atoms: _129  and  _131
REMARK   52  A    between atoms: _131  and  _132
REMARK   53  A    between atoms: _131  and  _134
REMARK   54  A    between atoms: _134  and  _135
REMARK   55  A    between atoms: _140  and  _141
REMARK   56  A    between atoms: _143  and  _145
REMARK   57  A    between atoms: _145  and  _146
REMARK   58  A    between atoms: _145  and  _148
REMARK   59  A    between atoms: _148  and  _149
REMARK   60  A    between atoms: _154  and  _155
REMARK   61  A    between atoms: _157  and  _159
REMARK   62  A    between atoms: _159  and  _160
REMARK   63  A    between atoms: _159  and  _162
REMARK   64  A    between atoms: _165  and  _167
REMARK   65  A    between atoms: _167  and  _168
REMARK   66  A    between atoms: _167  and  _170
REMARK   67  A    between atoms: _170  and  _171
REMARK   68  A    between atoms: _177  and  _178
REMARK   69  A    between atoms: _183  and  _185
REMARK   70  A    between atoms: _185  and  _186
REMARK   71  A    between atoms: _185  and  _188
REMARK   72  A    between atoms: _188  and  _189
REMARK   73  A    between atoms: _191  and  _193
REMARK   74  A    between atoms: _193  and  _194
REMARK   75  A    between atoms: _193  and  _196
REMARK   76  A    between atoms: _196  and  _197
REMARK   77  A    between atoms: _197  and  _198
REMARK   78  A    between atoms: _201  and  _203
REMARK   79  A    between atoms: _203  and  _204
REMARK   80  A    between atoms: _203  and  _206
REMARK   81  A    between atoms: _206  and  _207
REMARK   82  A    between atoms: _212  and  _213
REMARK   83  A    between atoms: _215  and  _217
REMARK   84  A    between atoms: _217  and  _218
REMARK   85  A    between atoms: _217  and  _220
REMARK   86  A    between atoms: _220  and  _221
REMARK   87  A    between atoms: _226  and  _228
REMARK   88  A    between atoms: _228  and  _229
REMARK   89  A    between atoms: _228  and  _231
REMARK   90  A    between atoms: _231  and  _232
REMARK   91  A    between atoms: _237  and  _239
REMARK   92  A    between atoms: _239  and  _240
REMARK   93  A    between atoms: _239  and  _242
REMARK   94  A    between atoms: _242  and  _243
REMARK   95  A    between atoms: _243  and  _244
REMARK   96  A    between atoms: _246  and  _248
REMARK   97  A    between atoms: _248  and  _249
REMARK   98  A    between atoms: _248  and  _251
REMARK   99  A    between atoms: _251  and  _252
REMARK  100  A    between atoms: _257  and  _258
REMARK  101  A    between atoms: _260  and  _262
REMARK  102  A    between atoms: _262  and  _263
REMARK  103  A    between atoms: _262  and  _265
REMARK  104  A    between atoms: _265  and  _266
REMARK  105  A    between atoms: _269  and  _271
REMARK  106  A    between atoms: _271  and  _272
REMARK  107  A    between atoms: _271  and  _274
REMARK  108  A    between atoms: _274  and  _275
REMARK  109  A    between atoms: _275  and  _491
REMARK  110  A    between atoms: _276  and  _278
REMARK  111  A    between atoms: _278  and  _279
REMARK  112  A    between atoms: _278  and  _281
REMARK  113  A    between atoms: _281  and  _282
REMARK  114  A    between atoms: _285  and  _287
REMARK  115  A    between atoms: _287  and  _288
REMARK  116  A    between atoms: _287  and  _290
REMARK  117  A    between atoms: _290  and  _291
REMARK  118  A    between atoms: _296  and  _297
REMARK  119  A    between atoms: _299  and  _301
REMARK  120  A    between atoms: _301  and  _302
REMARK  121  A    between atoms: _301  and  _304
REMARK  122  A    between atoms: _304  and  _305
REMARK  123  A    between atoms: _310  and  _311
REMARK  124  A    between atoms: _313  and  _315
REMARK  125  A    between atoms: _315  and  _316
REMARK  126  A    between atoms: _315  and  _318
REMARK  127  A    between atoms: _318  and  _319
REMARK  128  A    between atoms: _319  and  _320
REMARK  129  A    between atoms: _323  and  _325
REMARK  130  A    between atoms: _325  and  _326
REMARK  131  A    between atoms: _325  and  _328
REMARK  132  A    between atoms: _328  and  _329
REMARK  133  A    between atoms: _334  and  _335
REMARK  134  A    between atoms: _337  and  _339
REMARK  135  A    between atoms: _339  and  _340
REMARK  136  A    between atoms: _339  and  _342
REMARK  137  A    between atoms: _342  and  _343
REMARK  138  A    between atoms: _348  and  _350
REMARK  139  A    between atoms: _350  and  _351
REMARK  140  A    between atoms: _350  and  _353
REMARK  141  A    between atoms: _353  and  _354
REMARK  142  A    between atoms: _356  and  _358
REMARK  143  A    between atoms: _358  and  _359
REMARK  144  A    between atoms: _358  and  _361
REMARK  145  A    between atoms: _361  and  _362
REMARK  146  A    between atoms: _365  and  _367
REMARK  147  A    between atoms: _367  and  _368
REMARK  148  A    between atoms: _367  and  _370
REMARK  149  A    between atoms: _370  and  _371
REMARK  150  A    between atoms: _376  and  _378
REMARK  151  A    between atoms: _378  and  _379
REMARK  152  A    between atoms: _378  and  _381
REMARK  153  A    between atoms: _381  and  _382
REMARK  154  A    between atoms: _392  and  _394
REMARK  155  A    between atoms: _394  and  _395
REMARK  156  A    between atoms: _394  and  _397
REMARK  157  A    between atoms: _397  and  _398
REMARK  158  A    between atoms: _404  and  _406
REMARK  159  A    between atoms: _406  and  _407
REMARK  160  A    between atoms: _406  and  _409
REMARK  161  A    between atoms: _409  and  _410
REMARK  162  A    between atoms: _413  and  _415
REMARK  163  A    between atoms: _415  and  _416
REMARK  164  A    between atoms: _415  and  _418
REMARK  165  A    between atoms: _418  and  _419
REMARK  166  A    between atoms: _419  and  _420
REMARK  167  A    between atoms: _420  and  _421
REMARK  168  A    between atoms: _430  and  _432
REMARK  169  A    between atoms: _432  and  _433
REMARK  170  A    between atoms: _432  and  _435
REMARK  171  A    between atoms: _435  and  _436
REMARK  172  A    between atoms: _441  and  _443
REMARK  173  A    between atoms: _443  and  _444
REMARK  174  A    between atoms: _443  and  _446
REMARK  175  A    between atoms: _446  and  _447
REMARK  176  A    between atoms: _447  and  _448
REMARK  177  A    between atoms: _448  and  _449
REMARK  178  A    between atoms: _458  and  _460
REMARK  179  A    between atoms: _460  and  _461
REMARK  180  A    between atoms: _464  and  _466
REMARK  181  A    between atoms: _466  and  _467
REMARK  182  A    between atoms: _469  and  _471
REMARK  183  A    between atoms: _471  and  _472
REMARK  184  A    between atoms: _471  and  _474
REMARK  185  A    between atoms: _474  and  _475
REMARK  186  A    between atoms: _485  and  _487
REMARK  187  A    between atoms: _487  and  _488
REMARK  188  A    between atoms: _487  and  _490
REMARK  189  A    between atoms: _490  and  _491
REMARK  190  A    between atoms: _492  and  _494
REMARK  191  A    between atoms: _494  and  _495
REMARK  192  A    between atoms: _498  and  _500
REMARK  193  A    between atoms: _500  and  _501
REMARK  194  A    between atoms: _500  and  _503
REMARK  195  A    between atoms: _503  and  _504
REMARK  196  A    between atoms: _507  and  _509
REMARK  197  A    between atoms: _509  and  _510
REMARK  198  A    between atoms: _509  and  _512
REMARK  199  A    between atoms: _512  and  _513
REMARK  200  A    between atoms: _518  and  _519
REMARK  201  A    between atoms: _521  and  _523
REMARK  202  A    between atoms: _523  and  _524
REMARK  203  A    between atoms: _523  and  _526
REMARK  204  A    between atoms: _526  and  _527
REMARK  205  A    between atoms: _529  and  _531
REMARK  206  A    between atoms: _531  and  _532
REMARK  207  A    between atoms: _531  and  _534
REMARK  208  A    between atoms: _534  and  _535
REMARK  209  A    between atoms: _541  and  _543
REMARK  210  A    between atoms: _543  and  _544
REMARK  211  A    between atoms: _543  and  _546
REMARK  212  A    between atoms: _546  and  _547
REMARK  213  A    between atoms: _550  and  _552
REMARK  214  A    between atoms: _552  and  _553
REMARK  215  A    between atoms: _552  and  _555
REMARK  216  A    between atoms: _555  and  _556
REMARK  217  A    between atoms: _556  and  _557
REMARK  218  A    between atoms: _559  and  _561
REMARK  219  A    between atoms: _561  and  _562
REMARK  220  A    between atoms: _561  and  _564
REMARK  221  A    between atoms: _564  and  _565
REMARK  222  A    between atoms: _567  and  _569
REMARK  223  A    between atoms: _569  and  _570
REMARK  224  A    between atoms: _569  and  _572
REMARK  225  A    between atoms: _572  and  _573
REMARK  226  A    between atoms: _575  and  _577
REMARK  227  A    between atoms: _577  and  _578
REMARK  228  A    between atoms: _577  and  _580
REMARK  229  A    between atoms: _580  and  _581
REMARK  230  A    between atoms: _586  and  _588
REMARK  231  A    between atoms: _588  and  _589
REMARK  232  A    between atoms: _588  and  _591
REMARK  233  A    between atoms: _591  and  _592
REMARK  234  A    between atoms: _597  and  _599
REMARK  235  A    between atoms: _599  and  _600
REMARK  236  A    between atoms: _599  and  _602
REMARK  237  A    between atoms: _602  and  _603
REMARK  238  A    between atoms: _606  and  _608
REMARK  239  A    between atoms: _608  and  _609
REMARK  240  A    between atoms: _612  and  _614
REMARK  241  A    between atoms: _614  and  _615
REMARK  242  A    between atoms: _614  and  _617
REMARK  243  A    between atoms: _617  and  _618
REMARK  244  A    between atoms: _623  and  _625
REMARK  245  A    between atoms: _625  and  _626
REMARK  246  A    between atoms: _625  and  _628
REMARK  247  A    between atoms: _628  and  _629
REMARK  248  A    between atoms: _632  and  _634
REMARK  249  A    between atoms: _634  and  _635
REMARK  250  A    between atoms: _634  and  _637
REMARK  251  A    between atoms: _637  and  _638
REMARK  252  A    between atoms: _643  and  _644
REMARK  253  A    between atoms: _646  and  _648
REMARK  254  A    between atoms: _648  and  _649
REMARK  255  A    between atoms: _648  and  _651
REMARK  256  A    between atoms: _651  and  _652
REMARK  257  A    between atoms: _657  and  _658
REMARK  258  A    between atoms: _660  and  _662
REMARK  259  A    between atoms: _662  and  _663
REMARK  260  A    between atoms: _662  and  _665
REMARK  261  A    between atoms: _668  and  _670
REMARK  262  A    between atoms: _670  and  _671
REMARK  263  A    between atoms: _670  and  _673
REMARK  264  A    between atoms: _673  and  _674
REMARK  265  A    between atoms: _679  and  _681
REMARK  266  A    between atoms: _681  and  _682
REMARK  267  A    between atoms: _685  and  _687
REMARK  268  A    between atoms: _687  and  _688
REMARK  269  A    between atoms: _687  and  _690
REMARK  270  A    between atoms: _690  and  _691
REMARK  271  A    between atoms: _691  and  _692
REMARK  272  A    between atoms: _692  and  _693
REMARK  273  A    between atoms: _702  and  _704
REMARK  274  A    between atoms: _704  and  _705
REMARK  275  A    between atoms: _704  and  _707
REMARK  276  A    between atoms: _707  and  _708
REMARK  277  A    between atoms: _711  and  _713
REMARK  278  A    between atoms: _713  and  _714
REMARK  279  A    between atoms: _713  and  _716
REMARK  280  A    between atoms: _716  and  _717
REMARK  281  A    between atoms: _720  and  _722
REMARK  282  A    between atoms: _722  and  _723
REMARK  283  A    between atoms: _722  and  _725
REMARK  284  A    between atoms: _725  and  _726
REMARK                            x       y       z     vdW  Elec       q    Type
REMARK                         _______ _______ _______ _____ _____    ______ ____
ROOT
ATOM      1  CA  GLU A   1     -12.402  22.819  10.394  0.00  0.00    +0.134 C 
ENDROOT
BRANCH   1   2
ATOM      2  N   GLU A   1     -12.066  24.139  10.920  0.00  0.00    -0.239 NA
ATOM      3  H   GLU A   1     -11.864  24.245  11.935  0.00  0.00    +0.142 HD
ENDBRANCH   1   2
BRANCH   1   4
ATOM      4  C   GLU A   1     -13.819  22.768   9.797  0.00  0.00    +0.224 C 
ATOM      5  O   GLU A   1     -14.047  21.972   8.869  0.00  0.00    -0.287 OA
ENDBRANCH   1   4
BRANCH   1   6
ATOM      6  CB  GLU A   1     -12.226  21.729  11.445  0.00  0.00    +0.037 C 
BRANCH   6   7
ATOM      7  CG  GLU A   1     -10.833  21.640  12.088  0.00  0.00    +0.116 C 
BRANCH   7   8
ATOM      8  CD  GLU A   1     -10.520  22.597  13.178  0.00  0.00    +0.365 C 
ATOM      9  OE2 GLU A   1     -11.415  23.361  13.655  0.00  0.00    -0.246 OA
ATOM     10  OE1 GLU A   1      -9.339  22.703  13.622  0.00  0.00    -0.246 OA
ENDBRANCH   7   8
ENDBRANCH   6   7
ENDBRANCH   1   6
TORSDOF 5
REMARK  Name = ../refined-set-2016/1b0h/1b0h_pocket.pdb
REMARK  284 active torsions:
REMARK  status: ('A' for Active; 'I' for Inactive)
REMARK    1  A    between atoms: _1  and  _3
REMARK    2  A    between atoms: _3  and  _4
REMARK    3  A    between atoms: _3  and  _6
REMARK    4  A    between atoms: _6  and  _7
REMARK    5  A    between atoms: _12  and  _14
REMARK    6  A    between atoms: _14  and  _15
REMARK    7  A    between atoms: _17  and  _19
REMARK    8  A    between atoms: _19  and  _20
REMARK    9  A    between atoms: _19  and  _22
REMARK   10  A    between atoms: _22  and  _23
REMARK   11  A    between atoms: _25  and  _27
REMARK   12  A    between atoms: _27  and  _28
REMARK   13  A    between atoms: _27  and  _30
REMARK   14  A    between atoms: _30  and  _31
REMARK   15  A    between atoms: _31  and  _32
REMARK   16  A    between atoms: _37  and  _39
REMARK   17  A    between atoms: _39  and  _40
REMARK   18  A    between atoms: _39  and  _42
REMARK   19  A    between atoms: _42  and  _43
REMARK   20  A    between atoms: _46  and  _48
REMARK   21  A    between atoms: _48  and  _49
REMARK   22  A    between atoms: _48  and  _51
REMARK   23  A    between atoms: _51  and  _52
REMARK   24  A    between atoms: _52  and  _53
REMARK   25  A    between atoms: _56  and  _58
REMARK   26  A    between atoms: _58  and  _59
REMARK   27  A    between atoms: _61  and  _63
REMARK   28  A    between atoms: _63  and  _64
REMARK   29  A    between atoms: _63  and  _66
REMARK   30  A    between atoms: _70  and  _71
REMARK   31  A    between atoms: _76  and  _78
REMARK   32  A    between atoms: _78  and  _79
REMARK   33  A    between atoms: _78  and  _81
REMARK   34  A    between atoms: _81  and  _82
REMARK   35  A    between atoms: _82  and  _83
REMARK   36  A    between atoms: _86  and  _88
REMARK   37  A    between atoms: _88  and  _89
REMARK   38  A    between atoms: _88  and  _91
REMARK   39  A    between atoms: _91  and  _92
REMARK   40  A    between atoms: _94  and  _96
REMARK   41  A    between atoms: _96  and  _97
REMARK   42  A    between atoms: _96  and  _99
REMARK   43  A    between atoms: _99  and  _100
REMARK   44  A    between atoms: _105  and  _107
REMARK   45  A    between atoms: _107  and  _108
REMARK   46  A    between atoms: _107  and  _110
REMARK   47  A    between atoms: _110  and  _111
REMARK   48  A    between atoms: _111  and  _112
REMARK   49  A    between atoms: _112  and  _113
REMARK   50  A    between atoms: _123  and  _124
REMARK   51  A    between atoms: _129  and  _131
REMARK   52  A    between atoms: _131  and  _132
REMARK   53  A    between atoms: _131  and  _134
REMARK   54  A    between atoms: _134  and  _135
REMARK   55  A    between atoms: _140  and  _141
REMARK   56  A    between atoms: _143  and  _145
REMARK   57  A    between atoms: _145  and  _146
REMARK   58  A    between atoms: _145  and  _148
REMARK   59  A    between atoms: _148  and  _149
REMARK   60  A    between atoms: _154  and  _155
REMARK   61  A    between atoms: _157  and  _159
REMARK   62  A    between atoms: _159  and  _160
REMARK   63  A    between atoms: _159  and  _162
REMARK   64  A    between atoms: _165  and  _167
REMARK   65  A    between atoms: _167  and  _168
REMARK   66  A    between atoms: _167  and  _170
REMARK   67  A    between atoms: _170  and  _171
REMARK   68  A    between atoms: _177  and  _178
REMARK   69  A    between atoms: _183  and  _185
REMARK   70  A    between atoms: _185  and  _186
REMARK   71  A    between atoms: _185  and  _188
REMARK   72  A    between atoms: _188  and  _189
REMARK   73  A    between atoms: _191  and  _193
REMARK   74  A    between atoms: _193  and  _194
REMARK   75  A    between atoms: _193  and  _196
REMARK   76  A    between atoms: _196  and  _197
REMARK   77  A    between atoms: _197  and  _198
REMARK   78  A    between atoms: _201  and  _203
REMARK   79  A    between atoms: _203  and  _204
REMARK   80  A    between atoms: _203  and  _206
REMARK   81  A    between atoms: _206  and  _207
REMARK   82  A    between atoms: _212  and  _213
REMARK   83  A    between atoms: _215  and  _217
REMARK   84  A    between atoms: _217  and  _218
REMARK   85  A    between atoms: _217  and  _220
REMARK   86  A    between atoms: _220  and  _221
REMARK   87  A    between atoms: _226  and  _228
REMARK   88  A    between atoms: _228  and  _229
REMARK   89  A    between atoms: _228  and  _231
REMARK   90  A    between atoms: _231  and  _232
REMARK   91  A    between atoms: _237  and  _239
REMARK   92  A    between atoms: _239  and  _240
REMARK   93  A    between atoms: _239  and  _242
REMARK   94  A    between atoms: _242  and  _243
REMARK   95  A    between atoms: _243  and  _244
REMARK   96  A    between atoms: _246  and  _248
REMARK   97  A    between atoms: _248  and  _249
REMARK   98  A    between atoms: _248  and  _251
REMARK   99  A    between atoms: _251  and  _252
REMARK  100  A    between atoms: _257  and  _258
REMARK  101  A    between atoms: _260  and  _262
REMARK  102  A    between atoms: _262  and  _263
REMARK  103  A    between atoms: _262  and  _265
REMARK  104  A    between atoms: _265  and  _266
REMARK  105  A    between atoms: _269  and  _271
REMARK  106  A    between atoms: _271  and  _272
REMARK  107  A    between atoms: _271  and  _274
REMARK  108  A    between atoms: _274  and  _275
REMARK  109  A    between atoms: _275  and  _491
REMARK  110  A    between atoms: _276  and  _278
REMARK  111  A    between atoms: _278  and  _279
REMARK  112  A    between atoms: _278  and  _281
REMARK  113  A    between atoms: _281  and  _282
REMARK  114  A    between atoms: _285  and  _287
REMARK  115  A    between atoms: _287  and  _288
REMARK  116  A    between atoms: _287  and  _290
REMARK  117  A    between atoms: _290  and  _291
REMARK  118  A    between atoms: _296  and  _297
REMARK  119  A    between atoms: _299  and  _301
REMARK  120  A    between atoms: _301  and  _302
REMARK  121  A    between atoms: _301  and  _304
REMARK  122  A    between atoms: _304  and  _305
REMARK  123  A    between atoms: _310  and  _311
REMARK  124  A    between atoms: _313  and  _315
REMARK  125  A    between atoms: _315  and  _316
REMARK  126  A    between atoms: _315  and  _318
REMARK  127  A    between atoms: _318  and  _319
REMARK  128  A    between atoms: _319  and  _320
REMARK  129  A    between atoms: _323  and  _325
REMARK  130  A    between atoms: _325  and  _326
REMARK  131  A    between atoms: _325  and  _328
REMARK  132  A    between atoms: _328  and  _329
REMARK  133  A    between atoms: _334  and  _335
REMARK  134  A    between atoms: _337  and  _339
REMARK  135  A    between atoms: _339  and  _340
REMARK  136  A    between atoms: _339  and  _342
REMARK  137  A    between atoms: _342  and  _343
REMARK  138  A    between atoms: _348  and  _350
REMARK  139  A    between atoms: _350  and  _351
REMARK  140  A    between atoms: _350  and  _353
REMARK  141  A    between atoms: _353  and  _354
REMARK  142  A    between atoms: _356  and  _358
REMARK  143  A    between atoms: _358  and  _359
REMARK  144  A    between atoms: _358  and  _361
REMARK  145  A    between atoms: _361  and  _362
REMARK  146  A    between atoms: _365  and  _367
REMARK  147  A    between atoms: _367  and  _368
REMARK  148  A    between atoms: _367  and  _370
REMARK  149  A    between atoms: _370  and  _371
REMARK  150  A    between atoms: _376  and  _378
REMARK  151  A    between atoms: _378  and  _379
REMARK  152  A    between atoms: _378  and  _381
REMARK  153  A    between atoms: _381  and  _382
REMARK  154  A    between atoms: _392  and  _394
REMARK  155  A    between atoms: _394  and  _395
REMARK  156  A    between atoms: _394  and  _397
REMARK  157  A    between atoms: _397  and  _398
REMARK  158  A    between atoms: _404  and  _406
REMARK  159  A    between atoms: _406  and  _407
REMARK  160  A    between atoms: _406  and  _409
REMARK  161  A    between atoms: _409  and  _410
REMARK  162  A    between atoms: _413  and  _415
REMARK  163  A    between atoms: _415  and  _416
REMARK  164  A    between atoms: _415  and  _418
REMARK  165  A    between atoms: _418  and  _419
REMARK  166  A    between atoms: _419  and  _420
REMARK  167  A    between atoms: _420  and  _421
REMARK  168  A    between atoms: _430  and  _432
REMARK  169  A    between atoms: _432  and  _433
REMARK  170  A    between atoms: _432  and  _435
REMARK  171  A    between atoms: _435  and  _436
REMARK  172  A    between atoms: _441  and  _443
REMARK  173  A    between atoms: _443  and  _444
REMARK  174  A    between atoms: _443  and  _446
REMARK  175  A    between atoms: _446  and  _447
REMARK  176  A    between atoms: _447  and  _448
REMARK  177  A    between atoms: _448  and  _449
REMARK  178  A    between atoms: _458  and  _460
REMARK  179  A    between atoms: _460  and  _461
REMARK  180  A    between atoms: _464  and  _466
REMARK  181  A    between atoms: _466  and  _467
REMARK  182  A    between atoms: _469  and  _471
REMARK  183  A    between atoms: _471  and  _472
REMARK  184  A    between atoms: _471  and  _474
REMARK  185  A    between atoms: _474  and  _475
REMARK  186  A    between atoms: _485  and  _487
REMARK  187  A    between atoms: _487  and  _488
REMARK  188  A    between atoms: _487  and  _490
REMARK  189  A    between atoms: _490  and  _491
REMARK  190  A    between atoms: _492  and  _494
REMARK  191  A    between atoms: _494  and  _495
REMARK  192  A    between atoms: _498  and  _500
REMARK  193  A    between atoms: _500  and  _501
REMARK  194  A    between atoms: _500  and  _503
REMARK  195  A    between atoms: _503  and  _504
REMARK  196  A    between atoms: _507  and  _509
REMARK  197  A    between atoms: _509  and  _510
REMARK  198  A    between atoms: _509  and  _512
REMARK  199  A    between atoms: _512  and  _513
REMARK  200  A    between atoms: _518  and  _519
REMARK  201  A    between atoms: _521  and  _523
REMARK  202  A    between atoms: _523  and  _524
REMARK  203  A    between atoms: _523  and  _526
REMARK  204  A    between atoms: _526  and  _527
REMARK  205  A    between atoms: _529  and  _531
REMARK  206  A    between atoms: _531  and  _532
REMARK  207  A    between atoms: _531  and  _534
REMARK  208  A    between atoms: _534  and  _535
REMARK  209  A    between atoms: _541  and  _543
REMARK  210  A    between atoms: _543  and  _544
REMARK  211  A    between atoms: _543  and  _546
REMARK  212  A    between atoms: _546  and  _547
REMARK  213  A    between atoms: _550  and  _552
REMARK  214  A    between atoms: _552  and  _553
REMARK  215  A    between atoms: _552  and  _555
REMARK  216  A    between atoms: _555  and  _556
REMARK  217  A    between atoms: _556  and  _557
REMARK  218  A    between atoms: _559  and  _561
REMARK  219  A    between atoms: _561  and  _562
REMARK  220  A    between atoms: _561  and  _564
REMARK  221  A    between atoms: _564  and  _565
REMARK  222  A    between atoms: _567  and  _569
REMARK  223  A    between atoms: _569  and  _570
REMARK  224  A    between atoms: _569  and  _572
REMARK  225  A    between atoms: _572  and  _573
REMARK  226  A    between atoms: _575  and  _577
REMARK  227  A    between atoms: _577  and  _578
REMARK  228  A    between atoms: _577  and  _580
REMARK  229  A    between atoms: _580  and  _581
REMARK  230  A    between atoms: _586  and  _588
REMARK  231  A    between atoms: _588  and  _589
REMARK  232  A    between atoms: _588  and  _591
REMARK  233  A    between atoms: _591  and  _592
REMARK  234  A    between atoms: _597  and  _599
REMARK  235  A    between atoms: _599  and  _600
REMARK  236  A    between atoms: _599  and  _602
REMARK  237  A    between atoms: _602  and  _603
REMARK  238  A    between atoms: _606  and  _608
REMARK  239  A    between atoms: _608  and  _609
REMARK  240  A    between atoms: _612  and  _614
REMARK  241  A    between atoms: _614  and  _615
REMARK  242  A    between atoms: _614  and  _617
REMARK  243  A    between atoms: _617  and  _618
REMARK  244  A    between atoms: _623  and  _625
REMARK  245  A    between atoms: _625  and  _626
REMARK  246  A    between atoms: _625  and  _628
REMARK  247  A    between atoms: _628  and  _629
REMARK  248  A    between atoms: _632  and  _634
REMARK  249  A    between atoms: _634  and  _635
REMARK  250  A    between atoms: _634  and  _637
REMARK  251  A    between atoms: _637  and  _638
REMARK  252  A    between atoms: _643  and  _644
REMARK  253  A    between atoms: _646  and  _648
REMARK  254  A    between atoms: _648  and  _649
REMARK  255  A    between atoms: _648  and  _651
REMARK  256  A    between atoms: _651  and  _652
REMARK  257  A    between atoms: _657  and  _658
REMARK  258  A    between atoms: _660  and  _662
REMARK  259  A    between atoms: _662  and  _663
REMARK  260  A    between atoms: _662  and  _665
REMARK  261  A    between atoms: _668  and  _670
REMARK  262  A    between atoms: _670  and  _671
REMARK  263  A    between atoms: _670  and  _673
REMARK  264  A    between atoms: _673  and  _674
REMARK  265  A    between atoms: _679  and  _681
REMARK  266  A    between atoms: _681  and  _682
REMARK  267  A    between atoms: _685  and  _687
REMARK  268  A    between atoms: _687  and  _688
REMARK  269  A    between atoms: _687  and  _690
REMARK  270  A    between atoms: _690  and  _691
REMARK  271  A    between atoms: _691  and  _692
REMARK  272  A    between atoms: _692  and  _693
REMARK  273  A    between atoms: _702  and  _704
REMARK  274  A    between atoms: _704  and  _705
REMARK  275  A    between atoms: _704  and  _707
REMARK  276  A    between atoms: _707  and  _708
REMARK  277  A    between atoms: _711  and  _713
REMARK  278  A    between atoms: _713  and  _714
REMARK  279  A    between atoms: _713  and  _716
REMARK  280  A    between atoms: _716  and  _717
REMARK  281  A    between atoms: _720  and  _722
REMARK  282  A    between atoms: _722  and  _723
REMARK  283  A    between atoms: _722  and  _725
REMARK  284  A    between atoms: _725  and  _726
REMARK                            x       y       z     vdW  Elec       q    Type
REMARK                         _______ _______ _______ _____ _____    ______ ____
ROOT
ATOM      1  CA  ASN A   2      -6.877  16.251   9.381  0.00  0.00    +0.158 C 
ENDROOT
BRANCH   1   3
ATOM      2  C   TYR A   1      -7.337  17.876   7.652  0.00  0.00    +0.239 C 
ATOM      3  N   ASN A   2      -6.478  17.342   8.490  0.00  0.00    -0.297 N 
ATOM      4  H   ASN A   2      -5.502  17.699   8.521  0.00  0.00    +0.150 HD
ATOM      5  O   TYR A   1      -8.525  17.504   7.609  0.00  0.00    -0.274 OA
BRANCH   2   6
ATOM      6  CA  TYR A   1      -6.847  18.973   6.679  0.00  0.00    +0.149 C 
BRANCH   6   7
ATOM      7  N   TYR A   1      -7.932  19.093   5.721  0.00  0.00    -0.238 NA
ATOM      8  H   TYR A   1      -8.525  19.947   5.724  0.00  0.00    +0.142 HD
ENDBRANCH   6   7
BRANCH   6   9
ATOM      9  CB  TYR A   1      -6.609  20.282   7.410  0.00  0.00    +0.053 C 
BRANCH   9  10
ATOM     10  CG  TYR A   1      -5.423  20.216   8.357  0.00  0.00    -0.020 A 
ATOM     11  CD2 TYR A   1      -5.570  20.482   9.709  0.00  0.00    -0.001 A 
ATOM     12  CE2 TYR A   1      -4.481  20.405  10.581  0.00  0.00    +0.036 A 
ATOM     13  CZ  TYR A   1      -3.252  20.062  10.058  0.00  0.00    +0.134 A 
ATOM     14  CE1 TYR A   1      -3.080  19.789   8.716  0.00  0.00    +0.036 A 
ATOM     15  CD1 TYR A   1      -4.171  19.891   7.866  0.00  0.00    -0.001 A 
BRANCH  13  16
ATOM     16  OH  TYR A   1      -2.154  19.951  10.904  0.00  0.00    -0.506 OA
ATOM     17  HH  TYR A   1      -1.995  20.819  11.352  0.00  0.00    +0.292 HD
ENDBRANCH  13  16
ENDBRANCH   9  10
ENDBRANCH   6   9
ENDBRANCH   2   6
ENDBRANCH   1   3
BRANCH   1  18
ATOM     18  C   ASN A   2      -6.928  16.726  10.821  0.00  0.00    +0.241 C 
ATOM     19  O   ASN A   2      -6.132  16.424  11.684  0.00  0.00    -0.273 OA
ATOM     20  N   ASN A   3      -7.902  17.549  11.073  0.00  0.00    -0.297 N 
ATOM     21  H   ASN A   3      -8.404  17.865  10.219  0.00  0.00    +0.150 HD
BRANCH  20  22
ATOM     22  CA  ASN A   3      -8.432  18.114  12.284  0.00  0.00    +0.158 C 
BRANCH  22  23
ATOM     23  C   ASN A   3      -9.942  18.216  11.917  0.00  0.00    +0.241 C 
ATOM     24  N   MET A   4     -10.784  17.505  12.654  0.00  0.00    -0.298 N 
ATOM     25  H   MET A   4     -10.452  16.954  13.471  0.00  0.00    +0.150 HD
ATOM     26  O   ASN A   3     -10.233  18.710  10.787  0.00  0.00    -0.273 OA
BRANCH  24  27
ATOM     27  CA  MET A   4     -12.215  17.524  12.271  0.00  0.00    +0.138 C 
BRANCH  27  28
ATOM     28  C   MET A   4     -13.085  18.321  13.240  0.00  0.00    +0.227 C 
ATOM     29  O   MET A   4     -12.877  18.275  14.449  0.00  0.00    -0.286 OA
ENDBRANCH  27  28
BRANCH  27  30
ATOM     30  CB  MET A   4     -12.676  16.065  12.203  0.00  0.00    +0.039 C 
BRANCH  30  31
ATOM     31  CG  MET A   4     -12.187  15.239  11.050  0.00  0.00    +0.060 C 
BRANCH  31  32
ATOM     32  SD  MET A   4     -13.121  15.451   9.520  0.00  0.00    -0.139 S 
ATOM     33  CE  MET A   4     -12.308  16.874   8.806  0.00  0.00    +0.069 C 
ENDBRANCH  31  32
ENDBRANCH  30  31
ENDBRANCH  27  30
ENDBRANCH  24  27
ENDBRANCH  22  23
BRANCH  22  34
ATOM     34  CB  ASN A   3      -7.888  19.489  12.594  0.00  0.00    +0.114 C 
BRANCH  34  35
ATOM     35  CG  ASN A   3      -7.009  19.719  13.774  0.00  0.00    +0.222 C 
ATOM     36  OD1 ASN A   3      -6.310  18.901  14.352  0.00  0.00    -0.275 OA
ATOM     37  ND2 ASN A   3      -7.035  20.985  14.254  0.00  0.00    -0.329 N 
ATOM     38 HD21 ASN A   3      -6.470  21.236  15.091  0.00  0.00    +0.145 HD
ATOM     39 HD22 ASN A   3      -7.620  21.707  13.786  0.00  0.00    +0.145 HD
ENDBRANCH  34  35
ENDBRANCH  22  34
ENDBRANCH  20  22
ENDBRANCH   1  18
BRANCH   1  40
ATOM     40  CB  ASN A   2      -5.978  15.041   9.210  0.00  0.00    +0.114 C 
BRANCH  40  41
ATOM     41  CG  ASN A   2      -4.494  15.315   9.341  0.00  0.00    +0.222 C 
ATOM     42  OD1 ASN A   2      -4.049  16.449   9.462  0.00  0.00    -0.275 OA
ATOM     43  ND2 ASN A   2      -3.752  14.210   9.315  0.00  0.00    -0.329 N 
ATOM     44 HD21 ASN A   2      -2.718  14.276   9.401  0.00  0.00    +0.145 HD
ATOM     45 HD22 ASN A   2      -4.207  13.281   9.209  0.00  0.00    +0.145 HD
ENDBRANCH  40  41
ENDBRANCH   1  40
TORSDOF 18
REMARK  Name = ../refined-set-2016/1b0h/1b0h_pocket.pdb
REMARK  284 active torsions:
REMARK  status: ('A' for Active; 'I' for Inactive)
REMARK    1  A    between atoms: _1  and  _3
REMARK    2  A    between atoms: _3  and  _4
REMARK    3  A    between atoms: _3  and  _6
REMARK    4  A    between atoms: _6  and  _7
REMARK    5  A    between atoms: _12  and  _14
REMARK    6  A    between atoms: _14  and  _15
REMARK    7  A    between atoms: _17  and  _19
REMARK    8  A    between atoms: _19  and  _20
REMARK    9  A    between atoms: _19  and  _22
REMARK   10  A    between atoms: _22  and  _23
REMARK   11  A    between atoms: _25  and  _27
REMARK   12  A    between atoms: _27  and  _28
REMARK   13  A    between atoms: _27  and  _30
REMARK   14  A    between atoms: _30  and  _31
REMARK   15  A    between atoms: _31  and  _32
REMARK   16  A    between atoms: _37  and  _39
REMARK   17  A    between atoms: _39  and  _40
REMARK   18  A    between atoms: _39  and  _42
REMARK   19  A    between atoms: _42  and  _43
REMARK   20  A    between atoms: _46  and  _48
REMARK   21  A    between atoms: _48  and  _49
REMARK   22  A    between atoms: _48  and  _51
REMARK   23  A    between atoms: _51  and  _52
REMARK   24  A    between atoms: _52  and  _53
REMARK   25  A    between atoms: _56  and  _58
REMARK   26  A    between atoms: _58  and  _59
REMARK   27  A    between atoms: _61  and  _63
REMARK   28  A    between atoms: _63  and  _64
REMARK   29  A    between atoms: _63  and  _66
REMARK   30  A    between atoms: _70  and  _71
REMARK   31  A    between atoms: _76  and  _78
REMARK   32  A    between atoms: _78  and  _79
REMARK   33  A    between atoms: _78  and  _81
REMARK   34  A    between atoms: _81  and  _82
REMARK   35  A    between atoms: _82  and  _83
REMARK   36  A    between atoms: _86  and  _88
REMARK   37  A    between atoms: _88  and  _89
REMARK   38  A    between atoms: _88  and  _91
REMARK   39  A    between atoms: _91  and  _92
REMARK   40  A    between atoms: _94  and  _96
REMARK   41  A    between atoms: _96  and  _97
REMARK   42  A    between atoms: _96  and  _99
REMARK   43  A    between atoms: _99  and  _100
REMARK   44  A    between atoms: _105  and  _107
REMARK   45  A    between atoms: _107  and  _108
REMARK   46  A    between atoms: _107  and  _110
REMARK   47  A    between atoms: _110  and  _111
REMARK   48  A    between atoms: _111  and  _112
REMARK   49  A    between atoms: _112  and  _113
REMARK   50  A    between atoms: _123  and  _124
REMARK   51  A    between atoms: _129  and  _131
REMARK   52  A    between atoms: _131  and  _132
REMARK   53  A    between atoms: _131  and  _134
REMARK   54  A    between atoms: _134  and  _135
REMARK   55  A    between atoms: _140  and  _141
REMARK   56  A    between atoms: _143  and  _145
REMARK   57  A    between atoms: _145  and  _146
REMARK   58  A    between atoms: _145  and  _148
REMARK   59  A    between atoms: _148  and  _149
REMARK   60  A    between atoms: _154  and  _155
REMARK   61  A    between atoms: _157  and  _159
REMARK   62  A    between atoms: _159  and  _160
REMARK   63  A    between atoms: _159  and  _162
REMARK   64  A    between atoms: _165  and  _167
REMARK   65  A    between atoms: _167  and  _168
REMARK   66  A    between atoms: _167  and  _170
REMARK   67  A    between atoms: _170  and  _171
REMARK   68  A    between atoms: _177  and  _178
REMARK   69  A    between atoms: _183  and  _185
REMARK   70  A    between atoms: _185  and  _186
REMARK   71  A    between atoms: _185  and  _188
REMARK   72  A    between atoms: _188  and  _189
REMARK   73  A    between atoms: _191  and  _193
REMARK   74  A    between atoms: _193  and  _194
REMARK   75  A    between atoms: _193  and  _196
REMARK   76  A    between atoms: _196  and  _197
REMARK   77  A    between atoms: _197  and  _198
REMARK   78  A    between atoms: _201  and  _203
REMARK   79  A    between atoms: _203  and  _204
REMARK   80  A    between atoms: _203  and  _206
REMARK   81  A    between atoms: _206  and  _207
REMARK   82  A    between atoms: _212  and  _213
REMARK   83  A    between atoms: _215  and  _217
REMARK   84  A    between atoms: _217  and  _218
REMARK   85  A    between atoms: _217  and  _220
REMARK   86  A    between atoms: _220  and  _221
REMARK   87  A    between atoms: _226  and  _228
REMARK   88  A    between atoms: _228  and  _229
REMARK   89  A    between atoms: _228  and  _231
REMARK   90  A    between atoms: _231  and  _232
REMARK   91  A    between atoms: _237  and  _239
REMARK   92  A    between atoms: _239  and  _240
REMARK   93  A    between atoms: _239  and  _242
REMARK   94  A    between atoms: _242  and  _243
REMARK   95  A    between atoms: _243  and  _244
REMARK   96  A    between atoms: _246  and  _248
REMARK   97  A    between atoms: _248  and  _249
REMARK   98  A    between atoms: _248  and  _251
REMARK   99  A    between atoms: _251  and  _252
REMARK  100  A    between atoms: _257  and  _258
REMARK  101  A    between atoms: _260  and  _262
REMARK  102  A    between atoms: _262  and  _263
REMARK  103  A    between atoms: _262  and  _265
REMARK  104  A    between atoms: _265  and  _266
REMARK  105  A    between atoms: _269  and  _271
REMARK  106  A    between atoms: _271  and  _272
REMARK  107  A    between atoms: _271  and  _274
REMARK  108  A    between atoms: _274  and  _275
REMARK  109  A    between atoms: _275  and  _491
REMARK  110  A    between atoms: _276  and  _278
REMARK  111  A    between atoms: _278  and  _279
REMARK  112  A    between atoms: _278  and  _281
REMARK  113  A    between atoms: _281  and  _282
REMARK  114  A    between atoms: _285  and  _287
REMARK  115  A    between atoms: _287  and  _288
REMARK  116  A    between atoms: _287  and  _290
REMARK  117  A    between atoms: _290  and  _291
REMARK  118  A    between atoms: _296  and  _297
REMARK  119  A    between atoms: _299  and  _301
REMARK  120  A    between atoms: _301  and  _302
REMARK  121  A    between atoms: _301  and  _304
REMARK  122  A    between atoms: _304  and  _305
REMARK  123  A    between atoms: _310  and  _311
REMARK  124  A    between atoms: _313  and  _315
REMARK  125  A    between atoms: _315  and  _316
REMARK  126  A    between atoms: _315  and  _318
REMARK  127  A    between atoms: _318  and  _319
REMARK  128  A    between atoms: _319  and  _320
REMARK  129  A    between atoms: _323  and  _325
REMARK  130  A    between atoms: _325  and  _326
REMARK  131  A    between atoms: _325  and  _328
REMARK  132  A    between atoms: _328  and  _329
REMARK  133  A    between atoms: _334  and  _335
REMARK  134  A    between atoms: _337  and  _339
REMARK  135  A    between atoms: _339  and  _340
REMARK  136  A    between atoms: _339  and  _342
REMARK  137  A    between atoms: _342  and  _343
REMARK  138  A    between atoms: _348  and  _350
REMARK  139  A    between atoms: _350  and  _351
REMARK  140  A    between atoms: _350  and  _353
REMARK  141  A    between atoms: _353  and  _354
REMARK  142  A    between atoms: _356  and  _358
REMARK  143  A    between atoms: _358  and  _359
REMARK  144  A    between atoms: _358  and  _361
REMARK  145  A    between atoms: _361  and  _362
REMARK  146  A    between atoms: _365  and  _367
REMARK  147  A    between atoms: _367  and  _368
REMARK  148  A    between atoms: _367  and  _370
REMARK  149  A    between atoms: _370  and  _371
REMARK  150  A    between atoms: _376  and  _378
REMARK  151  A    between atoms: _378  and  _379
REMARK  152  A    between atoms: _378  and  _381
REMARK  153  A    between atoms: _381  and  _382
REMARK  154  A    between atoms: _392  and  _394
REMARK  155  A    between atoms: _394  and  _395
REMARK  156  A    between atoms: _394  and  _397
REMARK  157  A    between atoms: _397  and  _398
REMARK  158  A    between atoms: _404  and  _406
REMARK  159  A    between atoms: _406  and  _407
REMARK  160  A    between atoms: _406  and  _409
REMARK  161  A    between atoms: _409  and  _410
REMARK  162  A    between atoms: _413  and  _415
REMARK  163  A    between atoms: _415  and  _416
REMARK  164  A    between atoms: _415  and  _418
REMARK  165  A    between atoms: _418  and  _419
REMARK  166  A    between atoms: _419  and  _420
REMARK  167  A    between atoms: _420  and  _421
REMARK  168  A    between atoms: _430  and  _432
REMARK  169  A    between atoms: _432  and  _433
REMARK  170  A    between atoms: _432  and  _435
REMARK  171  A    between atoms: _435  and  _436
REMARK  172  A    between atoms: _441  and  _443
REMARK  173  A    between atoms: _443  and  _444
REMARK  174  A    between atoms: _443  and  _446
REMARK  175  A    between atoms: _446  and  _447
REMARK  176  A    between atoms: _447  and  _448
REMARK  177  A    between atoms: _448  and  _449
REMARK  178  A    between atoms: _458  and  _460
REMARK  179  A    between atoms: _460  and  _461
REMARK  180  A    between atoms: _464  and  _466
REMARK  181  A    between atoms: _466  and  _467
REMARK  182  A    between atoms: _469  and  _471
REMARK  183  A    between atoms: _471  and  _472
REMARK  184  A    between atoms: _471  and  _474
REMARK  185  A    between atoms: _474  and  _475
REMARK  186  A    between atoms: _485  and  _487
REMARK  187  A    between atoms: _487  and  _488
REMARK  188  A    between atoms: _487  and  _490
REMARK  189  A    between atoms: _490  and  _491
REMARK  190  A    between atoms: _492  and  _494
REMARK  191  A    between atoms: _494  and  _495
REMARK  192  A    between atoms: _498  and  _500
REMARK  193  A    between atoms: _500  and  _501
REMARK  194  A    between atoms: _500  and  _503
REMARK  195  A    between atoms: _503  and  _504
REMARK  196  A    between atoms: _507  and  _509
REMARK  197  A    between atoms: _509  and  _510
REMARK  198  A    between atoms: _509  and  _512
REMARK  199  A    between atoms: _512  and  _513
REMARK  200  A    between atoms: _518  and  _519
REMARK  201  A    between atoms: _521  and  _523
REMARK  202  A    between atoms: _523  and  _524
REMARK  203  A    between atoms: _523  and  _526
REMARK  204  A    between atoms: _526  and  _527
REMARK  205  A    between atoms: _529  and  _531
REMARK  206  A    between atoms: _531  and  _532
REMARK  207  A    between atoms: _531  and  _534
REMARK  208  A    between atoms: _534  and  _535
REMARK  209  A    between atoms: _541  and  _543
REMARK  210  A    between atoms: _543  and  _544
REMARK  211  A    between atoms: _543  and  _546
REMARK  212  A    between atoms: _546  and  _547
REMARK  213  A    between atoms: _550  and  _552
REMARK  214  A    between atoms: _552  and  _553
REMARK  215  A    between atoms: _552  and  _555
REMARK  216  A    between atoms: _555  and  _556
REMARK  217  A    between atoms: _556  and  _557
REMARK  218  A    between atoms: _559  and  _561
REMARK  219  A    between atoms: _561  and  _562
REMARK  220  A    between atoms: _561  and  _564
REMARK  221  A    between atoms: _564  and  _565
REMARK  222  A    between atoms: _567  and  _569
REMARK  223  A    between atoms: _569  and  _570
REMARK  224  A    between atoms: _569  and  _572
REMARK  225  A    between atoms: _572  and  _573
REMARK  226  A    between atoms: _575  and  _577
REMARK  227  A    between atoms: _577  and  _578
REMARK  228  A    between atoms: _577  and  _580
REMARK  229  A    between atoms: _580  and  _581
REMARK  230  A    between atoms: _586  and  _588
REMARK  231  A    between atoms: _588  and  _589
REMARK  232  A    between atoms: _588  and  _591
REMARK  233  A    between atoms: _591  and  _592
REMARK  234  A    between atoms: _597  and  _599
REMARK  235  A    between atoms: _599  and  _600
REMARK  236  A    between atoms: _599  and  _602
REMARK  237  A    between atoms: _602  and  _603
REMARK  238  A    between atoms: _606  and  _608
REMARK  239  A    between atoms: _608  and  _609
REMARK  240  A    between atoms: _612  and  _614
REMARK  241  A    between atoms: _614  and  _615
REMARK  242  A    between atoms: _614  and  _617
REMARK  243  A    between atoms: _617  and  _618
REMARK  244  A    between atoms: _623  and  _625
REMARK  245  A    between atoms: _625  and  _626
REMARK  246  A    between atoms: _625  and  _628
REMARK  247  A    between atoms: _628  and  _629
REMARK  248  A    between atoms: _632  and  _634
REMARK  249  A    between atoms: _634  and  _635
REMARK  250  A    between atoms: _634  and  _637
REMARK  251  A    between atoms: _637  and  _638
REMARK  252  A    between atoms: _643  and  _644
REMARK  253  A    between atoms: _646  and  _648
REMARK  254  A    between atoms: _648  and  _649
REMARK  255  A    between atoms: _648  and  _651
REMARK  256  A    between atoms: _651  and  _652
REMARK  257  A    between atoms: _657  and  _658
REMARK  258  A    between atoms: _660  and  _662
REMARK  259  A    between atoms: _662  and  _663
REMARK  260  A    between atoms: _662  and  _665
REMARK  261  A    between atoms: _668  and  _670
REMARK  262  A    between atoms: _670  and  _671
REMARK  263  A    between atoms: _670  and  _673
REMARK  264  A    between atoms: _673  and  _674
REMARK  265  A    between atoms: _679  and  _681
REMARK  266  A    between atoms: _681  and  _682
REMARK  267  A    between atoms: _685  and  _687
REMARK  268  A    between atoms: _687  and  _688
REMARK  269  A    between atoms: _687  and  _690
REMARK  270  A    between atoms: _690  and  _691
REMARK  271  A    between atoms: _691  and  _692
REMARK  272  A    between atoms: _692  and  _693
REMARK  273  A    between atoms: _702  and  _704
REMARK  274  A    between atoms: _704  and  _705
REMARK  275  A    between atoms: _704  and  _707
REMARK  276  A    between atoms: _707  and  _708
REMARK  277  A    between atoms: _711  and  _713
REMARK  278  A    between atoms: _713  and  _714
REMARK  279  A    between atoms: _713  and  _716
REMARK  280  A    between atoms: _716  and  _717
REMARK  281  A    between atoms: _720  and  _722
REMARK  282  A    between atoms: _722  and  _723
REMARK  283  A    between atoms: _722  and  _725
REMARK  284  A    between atoms: _725  and  _726
REMARK                            x       y       z     vdW  Elec       q    Type
REMARK                         _______ _______ _______ _____ _____    ______ ____
ROOT
ATOM      1  CA  CYS A   5       3.222  14.054  16.086  0.00  0.00    +0.160 C 
ENDROOT
BRANCH   1   2
ATOM      2  C   CYS A   5       4.650  13.527  15.849  0.00  0.00    +0.242 C 
ATOM      3  N   ALA A   6       4.813  12.203  15.858  0.00  0.00    -0.297 N 
ATOM      4  H   ALA A   6       3.989  11.581  15.987  0.00  0.00    +0.150 HD
ATOM      5  O   CYS A   5       5.561  14.331  15.664  0.00  0.00    -0.273 OA
BRANCH   3   6
ATOM      6  CA  ALA A   6       6.143  11.622  15.687  0.00  0.00    +0.149 C 
ATOM      7  CB  ALA A   6       6.089  10.097  15.719  0.00  0.00    +0.031 C 
BRANCH   6   8
ATOM      8  C   ALA A   6       6.770  12.077  14.365  0.00  0.00    +0.241 C 
ATOM      9  N   ASP A   7       8.108  12.232  14.411  0.00  0.00    -0.297 N 
ATOM     10  H   ASP A   7       8.605  12.152  15.321  0.00  0.00    +0.150 HD
ATOM     11  O   ALA A   6       6.064  12.310  13.371  0.00  0.00    -0.273 OA
BRANCH   9  12
ATOM     12  CA  ASP A   7       8.866  12.511  13.194  0.00  0.00    +0.160 C 
BRANCH  12  13
ATOM     13  C   ASP A   7       9.457  11.205  12.651  0.00  0.00    +0.241 C 
ATOM     14  N   TYR A   8       9.616  10.226  13.520  0.00  0.00    -0.298 N 
ATOM     15  H   TYR A   8       9.409  10.415  14.522  0.00  0.00    +0.150 HD
ATOM     16  O   ASP A   7       9.782  11.086  11.461  0.00  0.00    -0.273 OA
BRANCH  14  17
ATOM     17  CA  TYR A   8      10.071   8.882  13.142  0.00  0.00    +0.141 C 
BRANCH  17  18
ATOM     18  C   TYR A   8       9.378   7.931  14.096  0.00  0.00    +0.227 C 
ATOM     19  O   TYR A   8       9.115   8.325  15.252  0.00  0.00    -0.286 OA
ENDBRANCH  17  18
BRANCH  17  20
ATOM     20  CB  TYR A   8      11.598   8.767  13.125  0.00  0.00    +0.054 C 
BRANCH  20  21
ATOM     21  CG  TYR A   8      12.322   9.162  14.396  0.00  0.00    -0.020 A 
ATOM     22  CD2 TYR A   8      12.694   8.201  15.321  0.00  0.00    -0.001 A 
ATOM     23  CE2 TYR A   8      13.369   8.563  16.487  0.00  0.00    +0.036 A 
ATOM     24  CZ  TYR A   8      13.707   9.886  16.695  0.00  0.00    +0.134 A 
ATOM     25  CE1 TYR A   8      13.357  10.876  15.795  0.00  0.00    +0.036 A 
ATOM     26  CD1 TYR A   8      12.661  10.474  14.666  0.00  0.00    -0.001 A 
BRANCH  24  27
ATOM     27  OH  TYR A   8      14.408  10.235  17.842  0.00  0.00    -0.506 OA
ATOM     28  HH  TYR A   8      14.583   9.423  18.381  0.00  0.00    +0.292 HD
ENDBRANCH  24  27
ENDBRANCH  20  21
ENDBRANCH  17  20
ENDBRANCH  14  17
ENDBRANCH  12  13
BRANCH  12  29
ATOM     29  CB  ASP A   7      10.001  13.517  13.466  0.00  0.00    +0.143 C 
BRANCH  29  30
ATOM     30  CG  ASP A   7       9.421  14.847  13.969  0.00  0.00    +0.367 C 
ATOM     31  OD2 ASP A   7       9.991  15.424  14.901  0.00  0.00    -0.246 OA
ATOM     32  OD1 ASP A   7       8.375  15.320  13.422  0.00  0.00    -0.246 OA
ENDBRANCH  29  30
ENDBRANCH  12  29
ENDBRANCH   9  12
ENDBRANCH   6   8
ENDBRANCH   3   6
ENDBRANCH   1   2
BRANCH   1  33
ATOM     33  N   CYS A   5       3.284  15.190  16.983  0.00  0.00    -0.296 N 
ATOM     34  C   TRP A   4       2.860  15.170  18.239  0.00  0.00    +0.241 C 
ATOM     35  O   TRP A   4       2.206  14.235  18.713  0.00  0.00    -0.273 OA
ATOM     36  H   CYS A   5       3.686  16.077  16.619  0.00  0.00    +0.150 HD
BRANCH  34  37
ATOM     37  CA  TRP A   4       3.097  16.398  19.120  0.00  0.00    +0.153 C 
BRANCH  37  38
ATOM     38  N   TRP A   4       1.837  16.783  19.740  0.00  0.00    -0.297 N 
ATOM     39  H   TRP A   4       1.419  16.183  20.480  0.00  0.00    +0.150 HD
ATOM     40  C   GLY A   3       1.222  17.893  19.366  0.00  0.00    +0.243 C 
ATOM     41  O   GLY A   3       1.679  18.718  18.561  0.00  0.00    -0.273 OA
BRANCH  40  42
ATOM     42  CA  GLY A   3      -0.136  18.174  20.002  0.00  0.00    +0.176 C 
BRANCH  42  43
ATOM     43  N   GLY A   3      -0.001  19.497  20.667  0.00  0.00    -0.295 N 
ATOM     44  C   ALA A   2      -0.783  19.740  21.725  0.00  0.00    +0.241 C 
ATOM     45  O   ALA A   2      -1.684  19.009  22.087  0.00  0.00    -0.273 OA
ATOM     46  H   GLY A   3       0.676  20.207  20.322  0.00  0.00    +0.150 HD
BRANCH  44  47
ATOM     47  CA  ALA A   2      -0.541  21.108  22.353  0.00  0.00    +0.149 C 
ATOM     48  CB  ALA A   2       0.702  20.940  23.258  0.00  0.00    +0.031 C 
BRANCH  47  49
ATOM     49  N   ALA A   2      -1.696  21.587  23.086  0.00  0.00    -0.297 N 
ATOM     50  H   ALA A   2      -2.290  20.921  23.620  0.00  0.00    +0.150 HD
ATOM     51  C   ARG A   1      -1.992  22.891  23.071  0.00  0.00    +0.238 C 
ATOM     52  O   ARG A   1      -1.311  23.717  22.440  0.00  0.00    -0.274 OA
BRANCH  51  53
ATOM     53  CA  ARG A   1      -3.165  23.384  23.914  0.00  0.00    +0.145 C 
BRANCH  53  54
ATOM     54  N   ARG A   1      -2.649  24.542  24.620  0.00  0.00    -0.238 NA
ATOM     55  H   ARG A   1      -3.061  25.472  24.402  0.00  0.00    +0.142 HD
ENDBRANCH  53  54
BRANCH  53  56
ATOM     56  CB  ARG A   1      -4.382  23.844  23.122  0.00  0.00    +0.030 C 
BRANCH  56  57
ATOM     57  CG  ARG A   1      -5.000  22.820  22.195  0.00  0.00    +0.045 C 
BRANCH  57  58
ATOM     58  CD  ARG A   1      -4.384  23.237  20.819  0.00  0.00    +0.174 C 
BRANCH  58  59
ATOM     59  NE  ARG A   1      -3.859  22.064  20.283  0.00  0.00    -0.265 N 
ATOM     60  HE  ARG A   1      -4.209  21.231  20.798  0.00  0.00    +0.259 HD
ATOM     61  CZ  ARG A   1      -3.038  21.705  19.301  0.00  0.00    +0.342 C 
ATOM     62  NH2 ARG A   1      -2.867  20.387  19.219  0.00  0.00    -0.292 N 
ATOM     63 HH21 ARG A   1      -3.356  19.757  19.887  0.00  0.00    +0.255 HD
ATOM     64 HH22 ARG A   1      -2.245  19.988  18.487  0.00  0.00    +0.255 HD
ATOM     65  NH1 ARG A   1      -2.536  22.616  18.508  0.00  0.00    -0.292 N 
ATOM     66 HH11 ARG A   1      -2.779  23.618  18.647  0.00  0.00    +0.255 HD
ATOM     67 HH12 ARG A   1      -1.893  22.339  17.739  0.00  0.00    +0.255 HD
ENDBRANCH  58  59
ENDBRANCH  57  58
ENDBRANCH  56  57
ENDBRANCH  53  56
ENDBRANCH  51  53
ENDBRANCH  47  49
ENDBRANCH  44  47
ENDBRANCH  42  43
ENDBRANCH  40  42
ENDBRANCH  37  38
BRANCH  37  68
ATOM     68  CB  TRP A   4       4.206  16.085  20.123  0.00  0.00    +0.057 C 
BRANCH  68  69
ATOM     69  CG  TRP A   4       5.549  15.771  19.500  0.00  0.00    -0.002 A 
ATOM     70  CD1 TRP A   4       6.143  14.536  19.426  0.00  0.00    +0.068 A 
ATOM     71  NE1 TRP A   4       7.399  14.649  18.819  0.00  0.00    -0.352 N 
ATOM     72  HE1 TRP A   4       8.063  13.869  18.636  0.00  0.00    +0.166 HD
ATOM     73  CE2 TRP A   4       7.600  15.969  18.508  0.00  0.00    +0.056 A 
ATOM     74  CZ2 TRP A   4       8.702  16.579  17.913  0.00  0.00    +0.017 A 
ATOM     75  CH2 TRP A   4       8.666  17.933  17.748  0.00  0.00    +0.001 A 
ATOM     76  CZ3 TRP A   4       7.564  18.688  18.154  0.00  0.00    +0.000 A 
ATOM     77  CE3 TRP A   4       6.466  18.073  18.769  0.00  0.00    +0.001 A 
ATOM     78  CD2 TRP A   4       6.477  16.695  18.927  0.00  0.00    +0.013 A 
ENDBRANCH  68  69
ENDBRANCH  37  68
ENDBRANCH  34  37
ENDBRANCH   1  33
BRANCH   1  79
ATOM     79  CB  CYS A   5       2.645  14.416  14.706  0.00  0.00    +0.098 C 
BRANCH  79  80
ATOM     80  SG  CYS A   5       0.868  14.826  14.804  0.00  0.00    -0.080 S 
BRANCH  80  81
ATOM     81  SG  GLY A   3       0.008  12.983  15.127  0.00  0.00    -0.080 S 
BRANCH  81  82
ATOM     82  CB  GLY A   3      -0.428  13.034  16.876  0.00  0.00    +0.098 C 
BRANCH  82  83
ATOM     83  CA  GLY A   3       0.217  12.017  17.801  0.00  0.00    +0.160 C 
BRANCH  83  84
ATOM     84  C   GLY A   3      -0.550  12.030  19.126  0.00  0.00    +0.242 C 
ATOM     85  N   TRP A   4      -0.162  12.922  20.005  0.00  0.00    -0.295 N 
ATOM     86  H   TRP A   4       0.611  13.580  19.779  0.00  0.00    +0.150 HD
ATOM     87  O   GLY A   3      -1.507  11.257  19.248  0.00  0.00    -0.273 OA
BRANCH  85  88
ATOM     88  CA  TRP A   4      -0.825  12.984  21.305  0.00  0.00    +0.176 C 
BRANCH  88  89
ATOM     89  C   TRP A   4      -1.341  14.405  21.527  0.00  0.00    +0.243 C 
ATOM     90  N   CYS A   5      -2.614  14.537  21.896  0.00  0.00    -0.297 N 
ATOM     91  H   CYS A   5      -3.208  13.685  21.948  0.00  0.00    +0.150 HD
ATOM     92  O   TRP A   4      -0.555  15.310  21.318  0.00  0.00    -0.273 OA
BRANCH  90  93
ATOM     93  CA  CYS A   5      -3.214  15.834  22.233  0.00  0.00    +0.153 C 
BRANCH  93  94
ATOM     94  C   CYS A   5      -3.098  15.992  23.756  0.00  0.00    +0.241 C 
ATOM     95  O   CYS A   5      -3.405  15.065  24.515  0.00  0.00    -0.273 OA
ATOM     96  N   ALA A   6      -2.592  17.134  24.210  0.00  0.00    -0.298 N 
ATOM     97  H   ALA A   6      -2.336  17.882  23.534  0.00  0.00    +0.150 HD
BRANCH  96  98
ATOM     98  CA  ALA A   6      -2.389  17.360  25.625  0.00  0.00    +0.141 C 
BRANCH  98  99
ATOM     99  C   ALA A   6      -2.394  18.847  25.952  0.00  0.00    +0.227 C 
ATOM    100  O   ALA A   6      -2.346  19.650  25.030  0.00  0.00    -0.286 OA
ENDBRANCH  98  99
BRANCH  98 101
ATOM    101  CB  ALA A   6      -1.045  16.820  26.111  0.00  0.00    +0.054 C 
BRANCH 101 102
ATOM    102  CG  ALA A   6       0.229  17.334  25.480  0.00  0.00    -0.020 A 
ATOM    103  CD2 ALA A   6       1.101  18.150  26.219  0.00  0.00    -0.001 A 
ATOM    104  CE2 ALA A   6       2.307  18.599  25.702  0.00  0.00    +0.036 A 
ATOM    105  CZ  ALA A   6       2.625  18.229  24.401  0.00  0.00    +0.134 A 
ATOM    106  CE1 ALA A   6       1.786  17.445  23.637  0.00  0.00    +0.036 A 
ATOM    107  CD1 ALA A   6       0.579  17.008  24.183  0.00  0.00    -0.001 A 
BRANCH 105 108
ATOM    108  OH  ALA A   6       3.803  18.655  23.831  0.00  0.00    -0.506 OA
ATOM    109  HH  ALA A   6       4.305  19.204  24.484  0.00  0.00    +0.292 HD
ENDBRANCH 105 108
ENDBRANCH 101 102
ENDBRANCH  98 101
ENDBRANCH  96  98
ENDBRANCH  93  94
BRANCH  93 110
ATOM    110  CB  CYS A   5      -4.700  15.788  21.841  0.00  0.00    +0.055 C 
BRANCH 110 111
ATOM    111  CG  CYS A   5      -5.420  17.130  21.790  0.00  0.00    -0.020 A 
ATOM    112  CD2 CYS A   5      -5.715  17.863  22.940  0.00  0.00    -0.001 A 
ATOM    113  CE2 CYS A   5      -6.376  19.090  22.859  0.00  0.00    +0.036 A 
ATOM    114  CZ  CYS A   5      -6.798  19.535  21.616  0.00  0.00    +0.134 A 
ATOM    115  CE1 CYS A   5      -6.516  18.817  20.462  0.00  0.00    +0.036 A 
ATOM    116  CD1 CYS A   5      -5.832  17.618  20.571  0.00  0.00    -0.001 A 
BRANCH 114 117
ATOM    117  OH  CYS A   5      -7.452  20.732  21.443  0.00  0.00    -0.506 OA
ATOM    118  HH  CYS A   5      -7.663  20.856  20.484  0.00  0.00    +0.292 HD
ENDBRANCH 114 117
ENDBRANCH 110 111
ENDBRANCH  93 110
ENDBRANCH  90  93
ENDBRANCH  88  89
BRANCH  88 119
ATOM    119  CB  TRP A   4       0.152  12.607  22.438  0.00  0.00    +0.137 C 
ATOM    120  CG2 TRP A   4      -0.582  12.644  23.794  0.00  0.00    +0.034 C 
BRANCH 119 121
ATOM    121  OG1 TRP A   4       0.531  11.241  22.254  0.00  0.00    -0.382 OA
ATOM    122  HG1 TRP A   4       1.160  10.975  22.971  0.00  0.00    +0.210 HD
ENDBRANCH 119 121
ENDBRANCH  88 119
ENDBRANCH  85  88
ENDBRANCH  83  84
BRANCH  83 124
ATOM    123  C   ALA A   2       1.293  10.150  16.701  0.00  0.00    +0.241 C 
ATOM    124  N   GLY A   3       0.183  10.652  17.269  0.00  0.00    -0.296 N 
ATOM    125  H   GLY A   3      -0.685  10.082  17.330  0.00  0.00    +0.150 HD
ATOM    126  O   ALA A   2       2.378  10.757  16.574  0.00  0.00    -0.273 OA
BRANCH 123 127
ATOM    127  CA  ALA A   2       1.177   8.729  16.198  0.00  0.00    +0.149 C 
BRANCH 127 130
ATOM    128  C   ARG A   1      -1.002   8.518  15.196  0.00  0.00    +0.239 C 
ATOM    129  O   ARG A   1      -1.562   8.463  16.309  0.00  0.00    -0.274 OA
ATOM    130  N   ALA A   2       0.321   8.607  15.013  0.00  0.00    -0.297 N 
ATOM    131  H   ALA A   2       0.731   8.590  14.057  0.00  0.00    +0.150 HD
BRANCH 128 132
ATOM    132  CA  ARG A   1      -1.842   8.349  13.942  0.00  0.00    +0.149 C 
BRANCH 132 133
ATOM    133  N   ARG A   1      -2.663   7.128  14.098  0.00  0.00    -0.238 NA
ATOM    134  H   ARG A   1      -2.926   6.804  15.050  0.00  0.00    +0.142 HD
ENDBRANCH 132 133
BRANCH 132 135
ATOM    135  CB  ARG A   1      -2.803   9.515  13.749  0.00  0.00    +0.053 C 
BRANCH 135 136
ATOM    136  CG  ARG A   1      -2.310  10.813  13.154  0.00  0.00    -0.020 A 
ATOM    137  CD2 ARG A   1      -3.112  11.961  13.331  0.00  0.00    -0.001 A 
ATOM    138  CE2 ARG A   1      -2.745  13.187  12.800  0.00  0.00    +0.036 A 
ATOM    139  CZ  ARG A   1      -1.575  13.275  12.069  0.00  0.00    +0.134 A 
ATOM    140  CE1 ARG A   1      -0.777  12.179  11.894  0.00  0.00    +0.036 A 
ATOM    141  CD1 ARG A   1      -1.144  10.931  12.421  0.00  0.00    -0.001 A 
BRANCH 139 142
ATOM    142  OH  ARG A   1      -1.214  14.496  11.502  0.00  0.00    -0.506 OA
ATOM    143  HH  ARG A   1      -0.358  14.392  11.015  0.00  0.00    +0.292 HD
ENDBRANCH 139 142
ENDBRANCH 135 136
ENDBRANCH 132 135
ENDBRANCH 128 132
ENDBRANCH 127 130
BRANCH 127 144
ATOM    144  CB  ALA A   2       2.582   8.174  15.861  0.00  0.00    +0.029 C 
BRANCH 144 145
ATOM    145  CG  ALA A   2       2.540   6.645  15.686  0.00  0.00    +0.002 C 
ATOM    146  CD2 ALA A   2       2.179   5.991  17.002  0.00  0.00    +0.000 C 
ATOM    147  CD1 ALA A   2       3.875   6.138  15.162  0.00  0.00    +0.000 C 
ENDBRANCH 144 145
ENDBRANCH 127 144
ENDBRANCH 123 127
ENDBRANCH  83 124
ENDBRANCH  82  83
ENDBRANCH  81  82
ENDBRANCH  80  81
ENDBRANCH  79  80
ENDBRANCH   1  79
TORSDOF 57
REMARK  Name = ../refined-set-2016/1b0h/1b0h_pocket.pdb
REMARK  284 active torsions:
REMARK  status: ('A' for Active; 'I' for Inactive)
REMARK    1  A    between atoms: _1  and  _3
REMARK    2  A    between atoms: _3  and  _4
REMARK    3  A    between atoms: _3  and  _6
REMARK    4  A    between atoms: _6  and  _7
REMARK    5  A    between atoms: _12  and  _14
REMARK    6  A    between atoms: _14  and  _15
REMARK    7  A    between atoms: _17  and  _19
REMARK    8  A    between atoms: _19  and  _20
REMARK    9  A    between atoms: _19  and  _22
REMARK   10  A    between atoms: _22  and  _23
REMARK   11  A    between atoms: _25  and  _27
REMARK   12  A    between atoms: _27  and  _28
REMARK   13  A    between atoms: _27  and  _30
REMARK   14  A    between atoms: _30  and  _31
REMARK   15  A    between atoms: _31  and  _32
REMARK   16  A    between atoms: _37  and  _39
REMARK   17  A    between atoms: _39  and  _40
REMARK   18  A    between atoms: _39  and  _42
REMARK   19  A    between atoms: _42  and  _43
REMARK   20  A    between atoms: _46  and  _48
REMARK   21  A    between atoms: _48  and  _49
REMARK   22  A    between atoms: _48  and  _51
REMARK   23  A    between atoms: _51  and  _52
REMARK   24  A    between atoms: _52  and  _53
REMARK   25  A    between atoms: _56  and  _58
REMARK   26  A    between atoms: _58  and  _59
REMARK   27  A    between atoms: _61  and  _63
REMARK   28  A    between atoms: _63  and  _64
REMARK   29  A    between atoms: _63  and  _66
REMARK   30  A    between atoms: _70  and  _71
REMARK   31  A    between atoms: _76  and  _78
REMARK   32  A    between atoms: _78  and  _79
REMARK   33  A    between atoms: _78  and  _81
REMARK   34  A    between atoms: _81  and  _82
REMARK   35  A    between atoms: _82  and  _83
REMARK   36  A    between atoms: _86  and  _88
REMARK   37  A    between atoms: _88  and  _89
REMARK   38  A    between atoms: _88  and  _91
REMARK   39  A    between atoms: _91  and  _92
REMARK   40  A    between atoms: _94  and  _96
REMARK   41  A    between atoms: _96  and  _97
REMARK   42  A    between atoms: _96  and  _99
REMARK   43  A    between atoms: _99  and  _100
REMARK   44  A    between atoms: _105  and  _107
REMARK   45  A    between atoms: _107  and  _108
REMARK   46  A    between atoms: _107  and  _110
REMARK   47  A    between atoms: _110  and  _111
REMARK   48  A    between atoms: _111  and  _112
REMARK   49  A    between atoms: _112  and  _113
REMARK   50  A    between atoms: _123  and  _124
REMARK   51  A    between atoms: _129  and  _131
REMARK   52  A    between atoms: _131  and  _132
REMARK   53  A    between atoms: _131  and  _134
REMARK   54  A    between atoms: _134  and  _135
REMARK   55  A    between atoms: _140  and  _141
REMARK   56  A    between atoms: _143  and  _145
REMARK   57  A    between atoms: _145  and  _146
REMARK   58  A    between atoms: _145  and  _148
REMARK   59  A    between atoms: _148  and  _149
REMARK   60  A    between atoms: _154  and  _155
REMARK   61  A    between atoms: _157  and  _159
REMARK   62  A    between atoms: _159  and  _160
REMARK   63  A    between atoms: _159  and  _162
REMARK   64  A    between atoms: _165  and  _167
REMARK   65  A    between atoms: _167  and  _168
REMARK   66  A    between atoms: _167  and  _170
REMARK   67  A    between atoms: _170  and  _171
REMARK   68  A    between atoms: _177  and  _178
REMARK   69  A    between atoms: _183  and  _185
REMARK   70  A    between atoms: _185  and  _186
REMARK   71  A    between atoms: _185  and  _188
REMARK   72  A    between atoms: _188  and  _189
REMARK   73  A    between atoms: _191  and  _193
REMARK   74  A    between atoms: _193  and  _194
REMARK   75  A    between atoms: _193  and  _196
REMARK   76  A    between atoms: _196  and  _197
REMARK   77  A    between atoms: _197  and  _198
REMARK   78  A    between atoms: _201  and  _203
REMARK   79  A    between atoms: _203  and  _204
REMARK   80  A    between atoms: _203  and  _206
REMARK   81  A    between atoms: _206  and  _207
REMARK   82  A    between atoms: _212  and  _213
REMARK   83  A    between atoms: _215  and  _217
REMARK   84  A    between atoms: _217  and  _218
REMARK   85  A    between atoms: _217  and  _220
REMARK   86  A    between atoms: _220  and  _221
REMARK   87  A    between atoms: _226  and  _228
REMARK   88  A    between atoms: _228  and  _229
REMARK   89  A    between atoms: _228  and  _231
REMARK   90  A    between atoms: _231  and  _232
REMARK   91  A    between atoms: _237  and  _239
REMARK   92  A    between atoms: _239  and  _240
REMARK   93  A    between atoms: _239  and  _242
REMARK   94  A    between atoms: _242  and  _243
REMARK   95  A    between atoms: _243  and  _244
REMARK   96  A    between atoms: _246  and  _248
REMARK   97  A    between atoms: _248  and  _249
REMARK   98  A    between atoms: _248  and  _251
REMARK   99  A    between atoms: _251  and  _252
REMARK  100  A    between atoms: _257  and  _258
REMARK  101  A    between atoms: _260  and  _262
REMARK  102  A    between atoms: _262  and  _263
REMARK  103  A    between atoms: _262  and  _265
REMARK  104  A    between atoms: _265  and  _266
REMARK  105  A    between atoms: _269  and  _271
REMARK  106  A    between atoms: _271  and  _272
REMARK  107  A    between atoms: _271  and  _274
REMARK  108  A    between atoms: _274  and  _275
REMARK  109  A    between atoms: _275  and  _491
REMARK  110  A    between atoms: _276  and  _278
REMARK  111  A    between atoms: _278  and  _279
REMARK  112  A    between atoms: _278  and  _281
REMARK  113  A    between atoms: _281  and  _282
REMARK  114  A    between atoms: _285  and  _287
REMARK  115  A    between atoms: _287  and  _288
REMARK  116  A    between atoms: _287  and  _290
REMARK  117  A    between atoms: _290  and  _291
REMARK  118  A    between atoms: _296  and  _297
REMARK  119  A    between atoms: _299  and  _301
REMARK  120  A    between atoms: _301  and  _302
REMARK  121  A    between atoms: _301  and  _304
REMARK  122  A    between atoms: _304  and  _305
REMARK  123  A    between atoms: _310  and  _311
REMARK  124  A    between atoms: _313  and  _315
REMARK  125  A    between atoms: _315  and  _316
REMARK  126  A    between atoms: _315  and  _318
REMARK  127  A    between atoms: _318  and  _319
REMARK  128  A    between atoms: _319  and  _320
REMARK  129  A    between atoms: _323  and  _325
REMARK  130  A    between atoms: _325  and  _326
REMARK  131  A    between atoms: _325  and  _328
REMARK  132  A    between atoms: _328  and  _329
REMARK  133  A    between atoms: _334  and  _335
REMARK  134  A    between atoms: _337  and  _339
REMARK  135  A    between atoms: _339  and  _340
REMARK  136  A    between atoms: _339  and  _342
REMARK  137  A    between atoms: _342  and  _343
REMARK  138  A    between atoms: _348  and  _350
REMARK  139  A    between atoms: _350  and  _351
REMARK  140  A    between atoms: _350  and  _353
REMARK  141  A    between atoms: _353  and  _354
REMARK  142  A    between atoms: _356  and  _358
REMARK  143  A    between atoms: _358  and  _359
REMARK  144  A    between atoms: _358  and  _361
REMARK  145  A    between atoms: _361  and  _362
REMARK  146  A    between atoms: _365  and  _367
REMARK  147  A    between atoms: _367  and  _368
REMARK  148  A    between atoms: _367  and  _370
REMARK  149  A    between atoms: _370  and  _371
REMARK  150  A    between atoms: _376  and  _378
REMARK  151  A    between atoms: _378  and  _379
REMARK  152  A    between atoms: _378  and  _381
REMARK  153  A    between atoms: _381  and  _382
REMARK  154  A    between atoms: _392  and  _394
REMARK  155  A    between atoms: _394  and  _395
REMARK  156  A    between atoms: _394  and  _397
REMARK  157  A    between atoms: _397  and  _398
REMARK  158  A    between atoms: _404  and  _406
REMARK  159  A    between atoms: _406  and  _407
REMARK  160  A    between atoms: _406  and  _409
REMARK  161  A    between atoms: _409  and  _410
REMARK  162  A    between atoms: _413  and  _415
REMARK  163  A    between atoms: _415  and  _416
REMARK  164  A    between atoms: _415  and  _418
REMARK  165  A    between atoms: _418  and  _419
REMARK  166  A    between atoms: _419  and  _420
REMARK  167  A    between atoms: _420  and  _421
REMARK  168  A    between atoms: _430  and  _432
REMARK  169  A    between atoms: _432  and  _433
REMARK  170  A    between atoms: _432  and  _435
REMARK  171  A    between atoms: _435  and  _436
REMARK  172  A    between atoms: _441  and  _443
REMARK  173  A    between atoms: _443  and  _444
REMARK  174  A    between atoms: _443  and  _446
REMARK  175  A    between atoms: _446  and  _447
REMARK  176  A    between atoms: _447  and  _448
REMARK  177  A    between atoms: _448  and  _449
REMARK  178  A    between atoms: _458  and  _460
REMARK  179  A    between atoms: _460  and  _461
REMARK  180  A    between atoms: _464  and  _466
REMARK  181  A    between atoms: _466  and  _467
REMARK  182  A    between atoms: _469  and  _471
REMARK  183  A    between atoms: _471  and  _472
REMARK  184  A    between atoms: _471  and  _474
REMARK  185  A    between atoms: _474  and  _475
REMARK  186  A    between atoms: _485  and  _487
REMARK  187  A    between atoms: _487  and  _488
REMARK  188  A    between atoms: _487  and  _490
REMARK  189  A    between atoms: _490  and  _491
REMARK  190  A    between atoms: _492  and  _494
REMARK  191  A    between atoms: _494  and  _495
REMARK  192  A    between atoms: _498  and  _500
REMARK  193  A    between atoms: _500  and  _501
REMARK  194  A    between atoms: _500  and  _503
REMARK  195  A    between atoms: _503  and  _504
REMARK  196  A    between atoms: _507  and  _509
REMARK  197  A    between atoms: _509  and  _510
REMARK  198  A    between atoms: _509  and  _512
REMARK  199  A    between atoms: _512  and  _513
REMARK  200  A    between atoms: _518  and  _519
REMARK  201  A    between atoms: _521  and  _523
REMARK  202  A    between atoms: _523  and  _524
REMARK  203  A    between atoms: _523  and  _526
REMARK  204  A    between atoms: _526  and  _527
REMARK  205  A    between atoms: _529  and  _531
REMARK  206  A    between atoms: _531  and  _532
REMARK  207  A    between atoms: _531  and  _534
REMARK  208  A    between atoms: _534  and  _535
REMARK  209  A    between atoms: _541  and  _543
REMARK  210  A    between atoms: _543  and  _544
REMARK  211  A    between atoms: _543  and  _546
REMARK  212  A    between atoms: _546  and  _547
REMARK  213  A    between atoms: _550  and  _552
REMARK  214  A    between atoms: _552  and  _553
REMARK  215  A    between atoms: _552  and  _555
REMARK  216  A    between atoms: _555  and  _556
REMARK  217  A    between atoms: _556  and  _557
REMARK  218  A    between atoms: _559  and  _561
REMARK  219  A    between atoms: _561  and  _562
REMARK  220  A    between atoms: _561  and  _564
REMARK  221  A    between atoms: _564  and  _565
REMARK  222  A    between atoms: _567  and  _569
REMARK  223  A    between atoms: _569  and  _570
REMARK  224  A    between atoms: _569  and  _572
REMARK  225  A    between atoms: _572  and  _573
REMARK  226  A    between atoms: _575  and  _577
REMARK  227  A    between atoms: _577  and  _578
REMARK  228  A    between atoms: _577  and  _580
REMARK  229  A    between atoms: _580  and  _581
REMARK  230  A    between atoms: _586  and  _588
REMARK  231  A    between atoms: _588  and  _589
REMARK  232  A    between atoms: _588  and  _591
REMARK  233  A    between atoms: _591  and  _592
REMARK  234  A    between atoms: _597  and  _599
REMARK  235  A    between atoms: _599  and  _600
REMARK  236  A    between atoms: _599  and  _602
REMARK  237  A    between atoms: _602  and  _603
REMARK  238  A    between atoms: _606  and  _608
REMARK  239  A    between atoms: _608  and  _609
REMARK  240  A    between atoms: _612  and  _614
REMARK  241  A    between atoms: _614  and  _615
REMARK  242  A    between atoms: _614  and  _617
REMARK  243  A    between atoms: _617  and  _618
REMARK  244  A    between atoms: _623  and  _625
REMARK  245  A    between atoms: _625  and  _626
REMARK  246  A    between atoms: _625  and  _628
REMARK  247  A    between atoms: _628  and  _629
REMARK  248  A    between atoms: _632  and  _634
REMARK  249  A    between atoms: _634  and  _635
REMARK  250  A    between atoms: _634  and  _637
REMARK  251  A    between atoms: _637  and  _638
REMARK  252  A    between atoms: _643  and  _644
REMARK  253  A    between atoms: _646  and  _648
REMARK  254  A    between atoms: _648  and  _649
REMARK  255  A    between atoms: _648  and  _651
REMARK  256  A    between atoms: _651  and  _652
REMARK  257  A    between atoms: _657  and  _658
REMARK  258  A    between atoms: _660  and  _662
REMARK  259  A    between atoms: _662  and  _663
REMARK  260  A    between atoms: _662  and  _665
REMARK  261  A    between atoms: _668  and  _670
REMARK  262  A    between atoms: _670  and  _671
REMARK  263  A    between atoms: _670  and  _673
REMARK  264  A    between atoms: _673  and  _674
REMARK  265  A    between atoms: _679  and  _681
REMARK  266  A    between atoms: _681  and  _682
REMARK  267  A    between atoms: _685  and  _687
REMARK  268  A    between atoms: _687  and  _688
REMARK  269  A    between atoms: _687  and  _690
REMARK  270  A    between atoms: _690  and  _691
REMARK  271  A    between atoms: _691  and  _692
REMARK  272  A    between atoms: _692  and  _693
REMARK  273  A    between atoms: _702  and  _704
REMARK  274  A    between atoms: _704  and  _705
REMARK  275  A    between atoms: _704  and  _707
REMARK  276  A    between atoms: _707  and  _708
REMARK  277  A    between atoms: _711  and  _713
REMARK  278  A    between atoms: _713  and  _714
REMARK  279  A    between atoms: _713  and  _716
REMARK  280  A    between atoms: _716  and  _717
REMARK  281  A    between atoms: _720  and  _722
REMARK  282  A    between atoms: _722  and  _723
REMARK  283  A    between atoms: _722  and  _725
REMARK  284  A    between atoms: _725  and  _726
REMARK                            x       y       z     vdW  Elec       q    Type
REMARK                         _______ _______ _______ _____ _____    ______ ____
ROOT
ATOM      1  CA  GLU A   1       1.277  21.775  27.802  0.00  0.00    +0.134 C 
ENDROOT
BRANCH   1   2
ATOM      2  N   GLU A   1      -0.101  21.511  27.435  0.00  0.00    -0.239 NA
ATOM      3  H   GLU A   1      -0.469  21.952  26.568  0.00  0.00    +0.142 HD
ENDBRANCH   1   2
BRANCH   1   4
ATOM      4  C   GLU A   1       1.356  22.831  28.914  0.00  0.00    +0.224 C 
ATOM      5  O   GLU A   1       0.704  23.857  28.832  0.00  0.00    -0.287 OA
ENDBRANCH   1   4
BRANCH   1   6
ATOM      6  CB  GLU A   1       1.997  22.365  26.582  0.00  0.00    +0.037 C 
BRANCH   6   7
ATOM      7  CG  GLU A   1       3.437  22.859  26.828  0.00  0.00    +0.116 C 
BRANCH   7   8
ATOM      8  CD  GLU A   1       3.926  23.332  25.470  0.00  0.00    +0.365 C 
ATOM      9  OE2 GLU A   1       3.623  24.486  25.102  0.00  0.00    -0.246 OA
ATOM     10  OE1 GLU A   1       4.568  22.557  24.740  0.00  0.00    -0.246 OA
ENDBRANCH   7   8
ENDBRANCH   6   7
ENDBRANCH   1   6
TORSDOF 5
REMARK  Name = ../refined-set-2016/1b0h/1b0h_pocket.pdb
REMARK  284 active torsions:
REMARK  status: ('A' for Active; 'I' for Inactive)
REMARK    1  A    between atoms: _1  and  _3
REMARK    2  A    between atoms: _3  and  _4
REMARK    3  A    between atoms: _3  and  _6
REMARK    4  A    between atoms: _6  and  _7
REMARK    5  A    between atoms: _12  and  _14
REMARK    6  A    between atoms: _14  and  _15
REMARK    7  A    between atoms: _17  and  _19
REMARK    8  A    between atoms: _19  and  _20
REMARK    9  A    between atoms: _19  and  _22
REMARK   10  A    between atoms: _22  and  _23
REMARK   11  A    between atoms: _25  and  _27
REMARK   12  A    between atoms: _27  and  _28
REMARK   13  A    between atoms: _27  and  _30
REMARK   14  A    between atoms: _30  and  _31
REMARK   15  A    between atoms: _31  and  _32
REMARK   16  A    between atoms: _37  and  _39
REMARK   17  A    between atoms: _39  and  _40
REMARK   18  A    between atoms: _39  and  _42
REMARK   19  A    between atoms: _42  and  _43
REMARK   20  A    between atoms: _46  and  _48
REMARK   21  A    between atoms: _48  and  _49
REMARK   22  A    between atoms: _48  and  _51
REMARK   23  A    between atoms: _51  and  _52
REMARK   24  A    between atoms: _52  and  _53
REMARK   25  A    between atoms: _56  and  _58
REMARK   26  A    between atoms: _58  and  _59
REMARK   27  A    between atoms: _61  and  _63
REMARK   28  A    between atoms: _63  and  _64
REMARK   29  A    between atoms: _63  and  _66
REMARK   30  A    between atoms: _70  and  _71
REMARK   31  A    between atoms: _76  and  _78
REMARK   32  A    between atoms: _78  and  _79
REMARK   33  A    between atoms: _78  and  _81
REMARK   34  A    between atoms: _81  and  _82
REMARK   35  A    between atoms: _82  and  _83
REMARK   36  A    between atoms: _86  and  _88
REMARK   37  A    between atoms: _88  and  _89
REMARK   38  A    between atoms: _88  and  _91
REMARK   39  A    between atoms: _91  and  _92
REMARK   40  A    between atoms: _94  and  _96
REMARK   41  A    between atoms: _96  and  _97
REMARK   42  A    between atoms: _96  and  _99
REMARK   43  A    between atoms: _99  and  _100
REMARK   44  A    between atoms: _105  and  _107
REMARK   45  A    between atoms: _107  and  _108
REMARK   46  A    between atoms: _107  and  _110
REMARK   47  A    between atoms: _110  and  _111
REMARK   48  A    between atoms: _111  and  _112
REMARK   49  A    between atoms: _112  and  _113
REMARK   50  A    between atoms: _123  and  _124
REMARK   51  A    between atoms: _129  and  _131
REMARK   52  A    between atoms: _131  and  _132
REMARK   53  A    between atoms: _131  and  _134
REMARK   54  A    between atoms: _134  and  _135
REMARK   55  A    between atoms: _140  and  _141
REMARK   56  A    between atoms: _143  and  _145
REMARK   57  A    between atoms: _145  and  _146
REMARK   58  A    between atoms: _145  and  _148
REMARK   59  A    between atoms: _148  and  _149
REMARK   60  A    between atoms: _154  and  _155
REMARK   61  A    between atoms: _157  and  _159
REMARK   62  A    between atoms: _159  and  _160
REMARK   63  A    between atoms: _159  and  _162
REMARK   64  A    between atoms: _165  and  _167
REMARK   65  A    between atoms: _167  and  _168
REMARK   66  A    between atoms: _167  and  _170
REMARK   67  A    between atoms: _170  and  _171
REMARK   68  A    between atoms: _177  and  _178
REMARK   69  A    between atoms: _183  and  _185
REMARK   70  A    between atoms: _185  and  _186
REMARK   71  A    between atoms: _185  and  _188
REMARK   72  A    between atoms: _188  and  _189
REMARK   73  A    between atoms: _191  and  _193
REMARK   74  A    between atoms: _193  and  _194
REMARK   75  A    between atoms: _193  and  _196
REMARK   76  A    between atoms: _196  and  _197
REMARK   77  A    between atoms: _197  and  _198
REMARK   78  A    between atoms: _201  and  _203
REMARK   79  A    between atoms: _203  and  _204
REMARK   80  A    between atoms: _203  and  _206
REMARK   81  A    between atoms: _206  and  _207
REMARK   82  A    between atoms: _212  and  _213
REMARK   83  A    between atoms: _215  and  _217
REMARK   84  A    between atoms: _217  and  _218
REMARK   85  A    between atoms: _217  and  _220
REMARK   86  A    between atoms: _220  and  _221
REMARK   87  A    between atoms: _226  and  _228
REMARK   88  A    between atoms: _228  and  _229
REMARK   89  A    between atoms: _228  and  _231
REMARK   90  A    between atoms: _231  and  _232
REMARK   91  A    between atoms: _237  and  _239
REMARK   92  A    between atoms: _239  and  _240
REMARK   93  A    between atoms: _239  and  _242
REMARK   94  A    between atoms: _242  and  _243
REMARK   95  A    between atoms: _243  and  _244
REMARK   96  A    between atoms: _246  and  _248
REMARK   97  A    between atoms: _248  and  _249
REMARK   98  A    between atoms: _248  and  _251
REMARK   99  A    between atoms: _251  and  _252
REMARK  100  A    between atoms: _257  and  _258
REMARK  101  A    between atoms: _260  and  _262
REMARK  102  A    between atoms: _262  and  _263
REMARK  103  A    between atoms: _262  and  _265
REMARK  104  A    between atoms: _265  and  _266
REMARK  105  A    between atoms: _269  and  _271
REMARK  106  A    between atoms: _271  and  _272
REMARK  107  A    between atoms: _271  and  _274
REMARK  108  A    between atoms: _274  and  _275
REMARK  109  A    between atoms: _275  and  _491
REMARK  110  A    between atoms: _276  and  _278
REMARK  111  A    between atoms: _278  and  _279
REMARK  112  A    between atoms: _278  and  _281
REMARK  113  A    between atoms: _281  and  _282
REMARK  114  A    between atoms: _285  and  _287
REMARK  115  A    between atoms: _287  and  _288
REMARK  116  A    between atoms: _287  and  _290
REMARK  117  A    between atoms: _290  and  _291
REMARK  118  A    between atoms: _296  and  _297
REMARK  119  A    between atoms: _299  and  _301
REMARK  120  A    between atoms: _301  and  _302
REMARK  121  A    between atoms: _301  and  _304
REMARK  122  A    between atoms: _304  and  _305
REMARK  123  A    between atoms: _310  and  _311
REMARK  124  A    between atoms: _313  and  _315
REMARK  125  A    between atoms: _315  and  _316
REMARK  126  A    between atoms: _315  and  _318
REMARK  127  A    between atoms: _318  and  _319
REMARK  128  A    between atoms: _319  and  _320
REMARK  129  A    between atoms: _323  and  _325
REMARK  130  A    between atoms: _325  and  _326
REMARK  131  A    between atoms: _325  and  _328
REMARK  132  A    between atoms: _328  and  _329
REMARK  133  A    between atoms: _334  and  _335
REMARK  134  A    between atoms: _337  and  _339
REMARK  135  A    between atoms: _339  and  _340
REMARK  136  A    between atoms: _339  and  _342
REMARK  137  A    between atoms: _342  and  _343
REMARK  138  A    between atoms: _348  and  _350
REMARK  139  A    between atoms: _350  and  _351
REMARK  140  A    between atoms: _350  and  _353
REMARK  141  A    between atoms: _353  and  _354
REMARK  142  A    between atoms: _356  and  _358
REMARK  143  A    between atoms: _358  and  _359
REMARK  144  A    between atoms: _358  and  _361
REMARK  145  A    between atoms: _361  and  _362
REMARK  146  A    between atoms: _365  and  _367
REMARK  147  A    between atoms: _367  and  _368
REMARK  148  A    between atoms: _367  and  _370
REMARK  149  A    between atoms: _370  and  _371
REMARK  150  A    between atoms: _376  and  _378
REMARK  151  A    between atoms: _378  and  _379
REMARK  152  A    between atoms: _378  and  _381
REMARK  153  A    between atoms: _381  and  _382
REMARK  154  A    between atoms: _392  and  _394
REMARK  155  A    between atoms: _394  and  _395
REMARK  156  A    between atoms: _394  and  _397
REMARK  157  A    between atoms: _397  and  _398
REMARK  158  A    between atoms: _404  and  _406
REMARK  159  A    between atoms: _406  and  _407
REMARK  160  A    between atoms: _406  and  _409
REMARK  161  A    between atoms: _409  and  _410
REMARK  162  A    between atoms: _413  and  _415
REMARK  163  A    between atoms: _415  and  _416
REMARK  164  A    between atoms: _415  and  _418
REMARK  165  A    between atoms: _418  and  _419
REMARK  166  A    between atoms: _419  and  _420
REMARK  167  A    between atoms: _420  and  _421
REMARK  168  A    between atoms: _430  and  _432
REMARK  169  A    between atoms: _432  and  _433
REMARK  170  A    between atoms: _432  and  _435
REMARK  171  A    between atoms: _435  and  _436
REMARK  172  A    between atoms: _441  and  _443
REMARK  173  A    between atoms: _443  and  _444
REMARK  174  A    between atoms: _443  and  _446
REMARK  175  A    between atoms: _446  and  _447
REMARK  176  A    between atoms: _447  and  _448
REMARK  177  A    between atoms: _448  and  _449
REMARK  178  A    between atoms: _458  and  _460
REMARK  179  A    between atoms: _460  and  _461
REMARK  180  A    between atoms: _464  and  _466
REMARK  181  A    between atoms: _466  and  _467
REMARK  182  A    between atoms: _469  and  _471
REMARK  183  A    between atoms: _471  and  _472
REMARK  184  A    between atoms: _471  and  _474
REMARK  185  A    between atoms: _474  and  _475
REMARK  186  A    between atoms: _485  and  _487
REMARK  187  A    between atoms: _487  and  _488
REMARK  188  A    between atoms: _487  and  _490
REMARK  189  A    between atoms: _490  and  _491
REMARK  190  A    between atoms: _492  and  _494
REMARK  191  A    between atoms: _494  and  _495
REMARK  192  A    between atoms: _498  and  _500
REMARK  193  A    between atoms: _500  and  _501
REMARK  194  A    between atoms: _500  and  _503
REMARK  195  A    between atoms: _503  and  _504
REMARK  196  A    between atoms: _507  and  _509
REMARK  197  A    between atoms: _509  and  _510
REMARK  198  A    between atoms: _509  and  _512
REMARK  199  A    between atoms: _512  and  _513
REMARK  200  A    between atoms: _518  and  _519
REMARK  201  A    between atoms: _521  and  _523
REMARK  202  A    between atoms: _523  and  _524
REMARK  203  A    between atoms: _523  and  _526
REMARK  204  A    between atoms: _526  and  _527
REMARK  205  A    between atoms: _529  and  _531
REMARK  206  A    between atoms: _531  and  _532
REMARK  207  A    between atoms: _531  and  _534
REMARK  208  A    between atoms: _534  and  _535
REMARK  209  A    between atoms: _541  and  _543
REMARK  210  A    between atoms: _543  and  _544
REMARK  211  A    between atoms: _543  and  _546
REMARK  212  A    between atoms: _546  and  _547
REMARK  213  A    between atoms: _550  and  _552
REMARK  214  A    between atoms: _552  and  _553
REMARK  215  A    between atoms: _552  and  _555
REMARK  216  A    between atoms: _555  and  _556
REMARK  217  A    between atoms: _556  and  _557
REMARK  218  A    between atoms: _559  and  _561
REMARK  219  A    between atoms: _561  and  _562
REMARK  220  A    between atoms: _561  and  _564
REMARK  221  A    between atoms: _564  and  _565
REMARK  222  A    between atoms: _567  and  _569
REMARK  223  A    between atoms: _569  and  _570
REMARK  224  A    between atoms: _569  and  _572
REMARK  225  A    between atoms: _572  and  _573
REMARK  226  A    between atoms: _575  and  _577
REMARK  227  A    between atoms: _577  and  _578
REMARK  228  A    between atoms: _577  and  _580
REMARK  229  A    between atoms: _580  and  _581
REMARK  230  A    between atoms: _586  and  _588
REMARK  231  A    between atoms: _588  and  _589
REMARK  232  A    between atoms: _588  and  _591
REMARK  233  A    between atoms: _591  and  _592
REMARK  234  A    between atoms: _597  and  _599
REMARK  235  A    between atoms: _599  and  _600
REMARK  236  A    between atoms: _599  and  _602
REMARK  237  A    between atoms: _602  and  _603
REMARK  238  A    between atoms: _606  and  _608
REMARK  239  A    between atoms: _608  and  _609
REMARK  240  A    between atoms: _612  and  _614
REMARK  241  A    between atoms: _614  and  _615
REMARK  242  A    between atoms: _614  and  _617
REMARK  243  A    between atoms: _617  and  _618
REMARK  244  A    between atoms: _623  and  _625
REMARK  245  A    between atoms: _625  and  _626
REMARK  246  A    between atoms: _625  and  _628
REMARK  247  A    between atoms: _628  and  _629
REMARK  248  A    between atoms: _632  and  _634
REMARK  249  A    between atoms: _634  and  _635
REMARK  250  A    between atoms: _634  and  _637
REMARK  251  A    between atoms: _637  and  _638
REMARK  252  A    between atoms: _643  and  _644
REMARK  253  A    between atoms: _646  and  _648
REMARK  254  A    between atoms: _648  and  _649
REMARK  255  A    between atoms: _648  and  _651
REMARK  256  A    between atoms: _651  and  _652
REMARK  257  A    between atoms: _657  and  _658
REMARK  258  A    between atoms: _660  and  _662
REMARK  259  A    between atoms: _662  and  _663
REMARK  260  A    between atoms: _662  and  _665
REMARK  261  A    between atoms: _668  and  _670
REMARK  262  A    between atoms: _670  and  _671
REMARK  263  A    between atoms: _670  and  _673
REMARK  264  A    between atoms: _673  and  _674
REMARK  265  A    between atoms: _679  and  _681
REMARK  266  A    between atoms: _681  and  _682
REMARK  267  A    between atoms: _685  and  _687
REMARK  268  A    between atoms: _687  and  _688
REMARK  269  A    between atoms: _687  and  _690
REMARK  270  A    between atoms: _690  and  _691
REMARK  271  A    between atoms: _691  and  _692
REMARK  272  A    between atoms: _692  and  _693
REMARK  273  A    between atoms: _702  and  _704
REMARK  274  A    between atoms: _704  and  _705
REMARK  275  A    between atoms: _704  and  _707
REMARK  276  A    between atoms: _707  and  _708
REMARK  277  A    between atoms: _711  and  _713
REMARK  278  A    between atoms: _713  and  _714
REMARK  279  A    between atoms: _713  and  _716
REMARK  280  A    between atoms: _716  and  _717
REMARK  281  A    between atoms: _720  and  _722
REMARK  282  A    between atoms: _722  and  _723
REMARK  283  A    between atoms: _722  and  _725
REMARK  284  A    between atoms: _725  and  _726
REMARK                            x       y       z     vdW  Elec       q    Type
REMARK                         _______ _______ _______ _____ _____    ______ ____
ROOT
ATOM      1  CG  TYR A   1       4.899  13.325  25.538  0.00  0.00    -0.020 A 
ATOM      2  CD2 TYR A   1       6.252  13.433  25.279  0.00  0.00    -0.001 A 
ATOM      3  CE2 TYR A   1       6.767  14.407  24.425  0.00  0.00    +0.036 A 
ATOM      4  CZ  TYR A   1       5.878  15.280  23.824  0.00  0.00    +0.134 A 
ATOM      5  CE1 TYR A   1       4.521  15.209  24.057  0.00  0.00    +0.036 A 
ATOM      6  CD1 TYR A   1       4.026  14.244  24.934  0.00  0.00    -0.001 A 
ENDROOT
BRANCH   4   7
ATOM      7  OH  TYR A   1       6.378  16.279  23.002  0.00  0.00    -0.506 OA
ATOM      8  HH  TYR A   1       6.987  16.860  23.523  0.00  0.00    +0.292 HD
ENDBRANCH   4   7
BRANCH   1   9
ATOM      9  CB  TYR A   1       4.390  12.284  26.507  0.00  0.00    +0.051 C 
BRANCH   9  10
ATOM     10  CA  TYR A   1       3.107  11.555  26.120  0.00  0.00    +0.137 C 
BRANCH  10  11
ATOM     11  N   TYR A   1       2.732  10.630  27.197  0.00  0.00    -0.239 NA
ATOM     12  H   TYR A   1       3.477  10.162  27.750  0.00  0.00    +0.142 HD
ENDBRANCH  10  11
BRANCH  10  13
ATOM     13  C   TYR A   1       3.299  10.744  24.846  0.00  0.00    +0.224 C 
ATOM     14  O   TYR A   1       2.561  10.823  23.869  0.00  0.00    -0.287 OA
ENDBRANCH  10  13
ENDBRANCH   9  10
ENDBRANCH   1   9
TORSDOF 5
REMARK  Name = ../refined-set-2016/1b0h/1b0h_pocket.pdb
REMARK  284 active torsions:
REMARK  status: ('A' for Active; 'I' for Inactive)
REMARK    1  A    between atoms: _1  and  _3
REMARK    2  A    between atoms: _3  and  _4
REMARK    3  A    between atoms: _3  and  _6
REMARK    4  A    between atoms: _6  and  _7
REMARK    5  A    between atoms: _12  and  _14
REMARK    6  A    between atoms: _14  and  _15
REMARK    7  A    between atoms: _17  and  _19
REMARK    8  A    between atoms: _19  and  _20
REMARK    9  A    between atoms: _19  and  _22
REMARK   10  A    between atoms: _22  and  _23
REMARK   11  A    between atoms: _25  and  _27
REMARK   12  A    between atoms: _27  and  _28
REMARK   13  A    between atoms: _27  and  _30
REMARK   14  A    between atoms: _30  and  _31
REMARK   15  A    between atoms: _31  and  _32
REMARK   16  A    between atoms: _37  and  _39
REMARK   17  A    between atoms: _39  and  _40
REMARK   18  A    between atoms: _39  and  _42
REMARK   19  A    between atoms: _42  and  _43
REMARK   20  A    between atoms: _46  and  _48
REMARK   21  A    between atoms: _48  and  _49
REMARK   22  A    between atoms: _48  and  _51
REMARK   23  A    between atoms: _51  and  _52
REMARK   24  A    between atoms: _52  and  _53
REMARK   25  A    between atoms: _56  and  _58
REMARK   26  A    between atoms: _58  and  _59
REMARK   27  A    between atoms: _61  and  _63
REMARK   28  A    between atoms: _63  and  _64
REMARK   29  A    between atoms: _63  and  _66
REMARK   30  A    between atoms: _70  and  _71
REMARK   31  A    between atoms: _76  and  _78
REMARK   32  A    between atoms: _78  and  _79
REMARK   33  A    between atoms: _78  and  _81
REMARK   34  A    between atoms: _81  and  _82
REMARK   35  A    between atoms: _82  and  _83
REMARK   36  A    between atoms: _86  and  _88
REMARK   37  A    between atoms: _88  and  _89
REMARK   38  A    between atoms: _88  and  _91
REMARK   39  A    between atoms: _91  and  _92
REMARK   40  A    between atoms: _94  and  _96
REMARK   41  A    between atoms: _96  and  _97
REMARK   42  A    between atoms: _96  and  _99
REMARK   43  A    between atoms: _99  and  _100
REMARK   44  A    between atoms: _105  and  _107
REMARK   45  A    between atoms: _107  and  _108
REMARK   46  A    between atoms: _107  and  _110
REMARK   47  A    between atoms: _110  and  _111
REMARK   48  A    between atoms: _111  and  _112
REMARK   49  A    between atoms: _112  and  _113
REMARK   50  A    between atoms: _123  and  _124
REMARK   51  A    between atoms: _129  and  _131
REMARK   52  A    between atoms: _131  and  _132
REMARK   53  A    between atoms: _131  and  _134
REMARK   54  A    between atoms: _134  and  _135
REMARK   55  A    between atoms: _140  and  _141
REMARK   56  A    between atoms: _143  and  _145
REMARK   57  A    between atoms: _145  and  _146
REMARK   58  A    between atoms: _145  and  _148
REMARK   59  A    between atoms: _148  and  _149
REMARK   60  A    between atoms: _154  and  _155
REMARK   61  A    between atoms: _157  and  _159
REMARK   62  A    between atoms: _159  and  _160
REMARK   63  A    between atoms: _159  and  _162
REMARK   64  A    between atoms: _165  and  _167
REMARK   65  A    between atoms: _167  and  _168
REMARK   66  A    between atoms: _167  and  _170
REMARK   67  A    between atoms: _170  and  _171
REMARK   68  A    between atoms: _177  and  _178
REMARK   69  A    between atoms: _183  and  _185
REMARK   70  A    between atoms: _185  and  _186
REMARK   71  A    between atoms: _185  and  _188
REMARK   72  A    between atoms: _188  and  _189
REMARK   73  A    between atoms: _191  and  _193
REMARK   74  A    between atoms: _193  and  _194
REMARK   75  A    between atoms: _193  and  _196
REMARK   76  A    between atoms: _196  and  _197
REMARK   77  A    between atoms: _197  and  _198
REMARK   78  A    between atoms: _201  and  _203
REMARK   79  A    between atoms: _203  and  _204
REMARK   80  A    between atoms: _203  and  _206
REMARK   81  A    between atoms: _206  and  _207
REMARK   82  A    between atoms: _212  and  _213
REMARK   83  A    between atoms: _215  and  _217
REMARK   84  A    between atoms: _217  and  _218
REMARK   85  A    between atoms: _217  and  _220
REMARK   86  A    between atoms: _220  and  _221
REMARK   87  A    between atoms: _226  and  _228
REMARK   88  A    between atoms: _228  and  _229
REMARK   89  A    between atoms: _228  and  _231
REMARK   90  A    between atoms: _231  and  _232
REMARK   91  A    between atoms: _237  and  _239
REMARK   92  A    between atoms: _239  and  _240
REMARK   93  A    between atoms: _239  and  _242
REMARK   94  A    between atoms: _242  and  _243
REMARK   95  A    between atoms: _243  and  _244
REMARK   96  A    between atoms: _246  and  _248
REMARK   97  A    between atoms: _248  and  _249
REMARK   98  A    between atoms: _248  and  _251
REMARK   99  A    between atoms: _251  and  _252
REMARK  100  A    between atoms: _257  and  _258
REMARK  101  A    between atoms: _260  and  _262
REMARK  102  A    between atoms: _262  and  _263
REMARK  103  A    between atoms: _262  and  _265
REMARK  104  A    between atoms: _265  and  _266
REMARK  105  A    between atoms: _269  and  _271
REMARK  106  A    between atoms: _271  and  _272
REMARK  107  A    between atoms: _271  and  _274
REMARK  108  A    between atoms: _274  and  _275
REMARK  109  A    between atoms: _275  and  _491
REMARK  110  A    between atoms: _276  and  _278
REMARK  111  A    between atoms: _278  and  _279
REMARK  112  A    between atoms: _278  and  _281
REMARK  113  A    between atoms: _281  and  _282
REMARK  114  A    between atoms: _285  and  _287
REMARK  115  A    between atoms: _287  and  _288
REMARK  116  A    between atoms: _287  and  _290
REMARK  117  A    between atoms: _290  and  _291
REMARK  118  A    between atoms: _296  and  _297
REMARK  119  A    between atoms: _299  and  _301
REMARK  120  A    between atoms: _301  and  _302
REMARK  121  A    between atoms: _301  and  _304
REMARK  122  A    between atoms: _304  and  _305
REMARK  123  A    between atoms: _310  and  _311
REMARK  124  A    between atoms: _313  and  _315
REMARK  125  A    between atoms: _315  and  _316
REMARK  126  A    between atoms: _315  and  _318
REMARK  127  A    between atoms: _318  and  _319
REMARK  128  A    between atoms: _319  and  _320
REMARK  129  A    between atoms: _323  and  _325
REMARK  130  A    between atoms: _325  and  _326
REMARK  131  A    between atoms: _325  and  _328
REMARK  132  A    between atoms: _328  and  _329
REMARK  133  A    between atoms: _334  and  _335
REMARK  134  A    between atoms: _337  and  _339
REMARK  135  A    between atoms: _339  and  _340
REMARK  136  A    between atoms: _339  and  _342
REMARK  137  A    between atoms: _342  and  _343
REMARK  138  A    between atoms: _348  and  _350
REMARK  139  A    between atoms: _350  and  _351
REMARK  140  A    between atoms: _350  and  _353
REMARK  141  A    between atoms: _353  and  _354
REMARK  142  A    between atoms: _356  and  _358
REMARK  143  A    between atoms: _358  and  _359
REMARK  144  A    between atoms: _358  and  _361
REMARK  145  A    between atoms: _361  and  _362
REMARK  146  A    between atoms: _365  and  _367
REMARK  147  A    between atoms: _367  and  _368
REMARK  148  A    between atoms: _367  and  _370
REMARK  149  A    between atoms: _370  and  _371
REMARK  150  A    between atoms: _376  and  _378
REMARK  151  A    between atoms: _378  and  _379
REMARK  152  A    between atoms: _378  and  _381
REMARK  153  A    between atoms: _381  and  _382
REMARK  154  A    between atoms: _392  and  _394
REMARK  155  A    between atoms: _394  and  _395
REMARK  156  A    between atoms: _394  and  _397
REMARK  157  A    between atoms: _397  and  _398
REMARK  158  A    between atoms: _404  and  _406
REMARK  159  A    between atoms: _406  and  _407
REMARK  160  A    between atoms: _406  and  _409
REMARK  161  A    between atoms: _409  and  _410
REMARK  162  A    between atoms: _413  and  _415
REMARK  163  A    between atoms: _415  and  _416
REMARK  164  A    between atoms: _415  and  _418
REMARK  165  A    between atoms: _418  and  _419
REMARK  166  A    between atoms: _419  and  _420
REMARK  167  A    between atoms: _420  and  _421
REMARK  168  A    between atoms: _430  and  _432
REMARK  169  A    between atoms: _432  and  _433
REMARK  170  A    between atoms: _432  and  _435
REMARK  171  A    between atoms: _435  and  _436
REMARK  172  A    between atoms: _441  and  _443
REMARK  173  A    between atoms: _443  and  _444
REMARK  174  A    between atoms: _443  and  _446
REMARK  175  A    between atoms: _446  and  _447
REMARK  176  A    between atoms: _447  and  _448
REMARK  177  A    between atoms: _448  and  _449
REMARK  178  A    between atoms: _458  and  _460
REMARK  179  A    between atoms: _460  and  _461
REMARK  180  A    between atoms: _464  and  _466
REMARK  181  A    between atoms: _466  and  _467
REMARK  182  A    between atoms: _469  and  _471
REMARK  183  A    between atoms: _471  and  _472
REMARK  184  A    between atoms: _471  and  _474
REMARK  185  A    between atoms: _474  and  _475
REMARK  186  A    between atoms: _485  and  _487
REMARK  187  A    between atoms: _487  and  _488
REMARK  188  A    between atoms: _487  and  _490
REMARK  189  A    between atoms: _490  and  _491
REMARK  190  A    between atoms: _492  and  _494
REMARK  191  A    between atoms: _494  and  _495
REMARK  192  A    between atoms: _498  and  _500
REMARK  193  A    between atoms: _500  and  _501
REMARK  194  A    between atoms: _500  and  _503
REMARK  195  A    between atoms: _503  and  _504
REMARK  196  A    between atoms: _507  and  _509
REMARK  197  A    between atoms: _509  and  _510
REMARK  198  A    between atoms: _509  and  _512
REMARK  199  A    between atoms: _512  and  _513
REMARK  200  A    between atoms: _518  and  _519
REMARK  201  A    between atoms: _521  and  _523
REMARK  202  A    between atoms: _523  and  _524
REMARK  203  A    between atoms: _523  and  _526
REMARK  204  A    between atoms: _526  and  _527
REMARK  205  A    between atoms: _529  and  _531
REMARK  206  A    between atoms: _531  and  _532
REMARK  207  A    between atoms: _531  and  _534
REMARK  208  A    between atoms: _534  and  _535
REMARK  209  A    between atoms: _541  and  _543
REMARK  210  A    between atoms: _543  and  _544
REMARK  211  A    between atoms: _543  and  _546
REMARK  212  A    between atoms: _546  and  _547
REMARK  213  A    between atoms: _550  and  _552
REMARK  214  A    between atoms: _552  and  _553
REMARK  215  A    between atoms: _552  and  _555
REMARK  216  A    between atoms: _555  and  _556
REMARK  217  A    between atoms: _556  and  _557
REMARK  218  A    between atoms: _559  and  _561
REMARK  219  A    between atoms: _561  and  _562
REMARK  220  A    between atoms: _561  and  _564
REMARK  221  A    between atoms: _564  and  _565
REMARK  222  A    between atoms: _567  and  _569
REMARK  223  A    between atoms: _569  and  _570
REMARK  224  A    between atoms: _569  and  _572
REMARK  225  A    between atoms: _572  and  _573
REMARK  226  A    between atoms: _575  and  _577
REMARK  227  A    between atoms: _577  and  _578
REMARK  228  A    between atoms: _577  and  _580
REMARK  229  A    between atoms: _580  and  _581
REMARK  230  A    between atoms: _586  and  _588
REMARK  231  A    between atoms: _588  and  _589
REMARK  232  A    between atoms: _588  and  _591
REMARK  233  A    between atoms: _591  and  _592
REMARK  234  A    between atoms: _597  and  _599
REMARK  235  A    between atoms: _599  and  _600
REMARK  236  A    between atoms: _599  and  _602
REMARK  237  A    between atoms: _602  and  _603
REMARK  238  A    between atoms: _606  and  _608
REMARK  239  A    between atoms: _608  and  _609
REMARK  240  A    between atoms: _612  and  _614
REMARK  241  A    between atoms: _614  and  _615
REMARK  242  A    between atoms: _614  and  _617
REMARK  243  A    between atoms: _617  and  _618
REMARK  244  A    between atoms: _623  and  _625
REMARK  245  A    between atoms: _625  and  _626
REMARK  246  A    between atoms: _625  and  _628
REMARK  247  A    between atoms: _628  and  _629
REMARK  248  A    between atoms: _632  and  _634
REMARK  249  A    between atoms: _634  and  _635
REMARK  250  A    between atoms: _634  and  _637
REMARK  251  A    between atoms: _637  and  _638
REMARK  252  A    between atoms: _643  and  _644
REMARK  253  A    between atoms: _646  and  _648
REMARK  254  A    between atoms: _648  and  _649
REMARK  255  A    between atoms: _648  and  _651
REMARK  256  A    between atoms: _651  and  _652
REMARK  257  A    between atoms: _657  and  _658
REMARK  258  A    between atoms: _660  and  _662
REMARK  259  A    between atoms: _662  and  _663
REMARK  260  A    between atoms: _662  and  _665
REMARK  261  A    between atoms: _668  and  _670
REMARK  262  A    between atoms: _670  and  _671
REMARK  263  A    between atoms: _670  and  _673
REMARK  264  A    between atoms: _673  and  _674
REMARK  265  A    between atoms: _679  and  _681
REMARK  266  A    between atoms: _681  and  _682
REMARK  267  A    between atoms: _685  and  _687
REMARK  268  A    between atoms: _687  and  _688
REMARK  269  A    between atoms: _687  and  _690
REMARK  270  A    between atoms: _690  and  _691
REMARK  271  A    between atoms: _691  and  _692
REMARK  272  A    between atoms: _692  and  _693
REMARK  273  A    between atoms: _702  and  _704
REMARK  274  A    between atoms: _704  and  _705
REMARK  275  A    between atoms: _704  and  _707
REMARK  276  A    between atoms: _707  and  _708
REMARK  277  A    between atoms: _711  and  _713
REMARK  278  A    between atoms: _713  and  _714
REMARK  279  A    between atoms: _713  and  _716
REMARK  280  A    between atoms: _716  and  _717
REMARK  281  A    between atoms: _720  and  _722
REMARK  282  A    between atoms: _722  and  _723
REMARK  283  A    between atoms: _722  and  _725
REMARK  284  A    between atoms: _725  and  _726
REMARK                            x       y       z     vdW  Elec       q    Type
REMARK                         _______ _______ _______ _____ _____    ______ ____
ROOT
ATOM      1  CB  ASN A   1      -3.192  27.464  17.167  0.00  0.00    +0.110 C 
ENDROOT
BRANCH   1   2
ATOM      2  CG  ASN A   1      -3.470  25.974  17.074  0.00  0.00    +0.221 C 
ATOM      3  OD1 ASN A   1      -3.365  25.229  18.055  0.00  0.00    -0.275 OA
ATOM      4  ND2 ASN A   1      -3.849  25.474  15.894  0.00  0.00    -0.329 N 
ATOM      5 HD21 ASN A   1      -4.055  24.459  15.801  0.00  0.00    +0.145 HD
ATOM      6 HD22 ASN A   1      -3.938  26.100  15.068  0.00  0.00    +0.145 HD
ENDBRANCH   1   2
BRANCH   1   7
ATOM      7  CA  ASN A   1      -4.196  28.192  18.073  0.00  0.00    +0.142 C 
BRANCH   7   8
ATOM      8  N   ASN A   1      -4.255  27.556  19.392  0.00  0.00    -0.239 NA
ATOM      9  H   ASN A   1      -4.052  26.544  19.523  0.00  0.00    +0.142 HD
ENDBRANCH   7   8
BRANCH   7  10
ATOM     10  C   ASN A   1      -5.599  28.174  17.463  0.00  0.00    +0.225 C 
ATOM     11  O   ASN A   1      -6.342  27.205  17.606  0.00  0.00    -0.287 OA
ENDBRANCH   7  10
ENDBRANCH   1   7
TORSDOF 4
REMARK  Name = ../refined-set-2016/1b0h/1b0h_pocket.pdb
REMARK  284 active torsions:
REMARK  status: ('A' for Active; 'I' for Inactive)
REMARK    1  A    between atoms: _1  and  _3
REMARK    2  A    between atoms: _3  and  _4
REMARK    3  A    between atoms: _3  and  _6
REMARK    4  A    between atoms: _6  and  _7
REMARK    5  A    between atoms: _12  and  _14
REMARK    6  A    between atoms: _14  and  _15
REMARK    7  A    between atoms: _17  and  _19
REMARK    8  A    between atoms: _19  and  _20
REMARK    9  A    between atoms: _19  and  _22
REMARK   10  A    between atoms: _22  and  _23
REMARK   11  A    between atoms: _25  and  _27
REMARK   12  A    between atoms: _27  and  _28
REMARK   13  A    between atoms: _27  and  _30
REMARK   14  A    between atoms: _30  and  _31
REMARK   15  A    between atoms: _31  and  _32
REMARK   16  A    between atoms: _37  and  _39
REMARK   17  A    between atoms: _39  and  _40
REMARK   18  A    between atoms: _39  and  _42
REMARK   19  A    between atoms: _42  and  _43
REMARK   20  A    between atoms: _46  and  _48
REMARK   21  A    between atoms: _48  and  _49
REMARK   22  A    between atoms: _48  and  _51
REMARK   23  A    between atoms: _51  and  _52
REMARK   24  A    between atoms: _52  and  _53
REMARK   25  A    between atoms: _56  and  _58
REMARK   26  A    between atoms: _58  and  _59
REMARK   27  A    between atoms: _61  and  _63
REMARK   28  A    between atoms: _63  and  _64
REMARK   29  A    between atoms: _63  and  _66
REMARK   30  A    between atoms: _70  and  _71
REMARK   31  A    between atoms: _76  and  _78
REMARK   32  A    between atoms: _78  and  _79
REMARK   33  A    between atoms: _78  and  _81
REMARK   34  A    between atoms: _81  and  _82
REMARK   35  A    between atoms: _82  and  _83
REMARK   36  A    between atoms: _86  and  _88
REMARK   37  A    between atoms: _88  and  _89
REMARK   38  A    between atoms: _88  and  _91
REMARK   39  A    between atoms: _91  and  _92
REMARK   40  A    between atoms: _94  and  _96
REMARK   41  A    between atoms: _96  and  _97
REMARK   42  A    between atoms: _96  and  _99
REMARK   43  A    between atoms: _99  and  _100
REMARK   44  A    between atoms: _105  and  _107
REMARK   45  A    between atoms: _107  and  _108
REMARK   46  A    between atoms: _107  and  _110
REMARK   47  A    between atoms: _110  and  _111
REMARK   48  A    between atoms: _111  and  _112
REMARK   49  A    between atoms: _112  and  _113
REMARK   50  A    between atoms: _123  and  _124
REMARK   51  A    between atoms: _129  and  _131
REMARK   52  A    between atoms: _131  and  _132
REMARK   53  A    between atoms: _131  and  _134
REMARK   54  A    between atoms: _134  and  _135
REMARK   55  A    between atoms: _140  and  _141
REMARK   56  A    between atoms: _143  and  _145
REMARK   57  A    between atoms: _145  and  _146
REMARK   58  A    between atoms: _145  and  _148
REMARK   59  A    between atoms: _148  and  _149
REMARK   60  A    between atoms: _154  and  _155
REMARK   61  A    between atoms: _157  and  _159
REMARK   62  A    between atoms: _159  and  _160
REMARK   63  A    between atoms: _159  and  _162
REMARK   64  A    between atoms: _165  and  _167
REMARK   65  A    between atoms: _167  and  _168
REMARK   66  A    between atoms: _167  and  _170
REMARK   67  A    between atoms: _170  and  _171
REMARK   68  A    between atoms: _177  and  _178
REMARK   69  A    between atoms: _183  and  _185
REMARK   70  A    between atoms: _185  and  _186
REMARK   71  A    between atoms: _185  and  _188
REMARK   72  A    between atoms: _188  and  _189
REMARK   73  A    between atoms: _191  and  _193
REMARK   74  A    between atoms: _193  and  _194
REMARK   75  A    between atoms: _193  and  _196
REMARK   76  A    between atoms: _196  and  _197
REMARK   77  A    between atoms: _197  and  _198
REMARK   78  A    between atoms: _201  and  _203
REMARK   79  A    between atoms: _203  and  _204
REMARK   80  A    between atoms: _203  and  _206
REMARK   81  A    between atoms: _206  and  _207
REMARK   82  A    between atoms: _212  and  _213
REMARK   83  A    between atoms: _215  and  _217
REMARK   84  A    between atoms: _217  and  _218
REMARK   85  A    between atoms: _217  and  _220
REMARK   86  A    between atoms: _220  and  _221
REMARK   87  A    between atoms: _226  and  _228
REMARK   88  A    between atoms: _228  and  _229
REMARK   89  A    between atoms: _228  and  _231
REMARK   90  A    between atoms: _231  and  _232
REMARK   91  A    between atoms: _237  and  _239
REMARK   92  A    between atoms: _239  and  _240
REMARK   93  A    between atoms: _239  and  _242
REMARK   94  A    between atoms: _242  and  _243
REMARK   95  A    between atoms: _243  and  _244
REMARK   96  A    between atoms: _246  and  _248
REMARK   97  A    between atoms: _248  and  _249
REMARK   98  A    between atoms: _248  and  _251
REMARK   99  A    between atoms: _251  and  _252
REMARK  100  A    between atoms: _257  and  _258
REMARK  101  A    between atoms: _260  and  _262
REMARK  102  A    between atoms: _262  and  _263
REMARK  103  A    between atoms: _262  and  _265
REMARK  104  A    between atoms: _265  and  _266
REMARK  105  A    between atoms: _269  and  _271
REMARK  106  A    between atoms: _271  and  _272
REMARK  107  A    between atoms: _271  and  _274
REMARK  108  A    between atoms: _274  and  _275
REMARK  109  A    between atoms: _275  and  _491
REMARK  110  A    between atoms: _276  and  _278
REMARK  111  A    between atoms: _278  and  _279
REMARK  112  A    between atoms: _278  and  _281
REMARK  113  A    between atoms: _281  and  _282
REMARK  114  A    between atoms: _285  and  _287
REMARK  115  A    between atoms: _287  and  _288
REMARK  116  A    between atoms: _287  and  _290
REMARK  117  A    between atoms: _290  and  _291
REMARK  118  A    between atoms: _296  and  _297
REMARK  119  A    between atoms: _299  and  _301
REMARK  120  A    between atoms: _301  and  _302
REMARK  121  A    between atoms: _301  and  _304
REMARK  122  A    between atoms: _304  and  _305
REMARK  123  A    between atoms: _310  and  _311
REMARK  124  A    between atoms: _313  and  _315
REMARK  125  A    between atoms: _315  and  _316
REMARK  126  A    between atoms: _315  and  _318
REMARK  127  A    between atoms: _318  and  _319
REMARK  128  A    between atoms: _319  and  _320
REMARK  129  A    between atoms: _323  and  _325
REMARK  130  A    between atoms: _325  and  _326
REMARK  131  A    between atoms: _325  and  _328
REMARK  132  A    between atoms: _328  and  _329
REMARK  133  A    between atoms: _334  and  _335
REMARK  134  A    between atoms: _337  and  _339
REMARK  135  A    between atoms: _339  and  _340
REMARK  136  A    between atoms: _339  and  _342
REMARK  137  A    between atoms: _342  and  _343
REMARK  138  A    between atoms: _348  and  _350
REMARK  139  A    between atoms: _350  and  _351
REMARK  140  A    between atoms: _350  and  _353
REMARK  141  A    between atoms: _353  and  _354
REMARK  142  A    between atoms: _356  and  _358
REMARK  143  A    between atoms: _358  and  _359
REMARK  144  A    between atoms: _358  and  _361
REMARK  145  A    between atoms: _361  and  _362
REMARK  146  A    between atoms: _365  and  _367
REMARK  147  A    between atoms: _367  and  _368
REMARK  148  A    between atoms: _367  and  _370
REMARK  149  A    between atoms: _370  and  _371
REMARK  150  A    between atoms: _376  and  _378
REMARK  151  A    between atoms: _378  and  _379
REMARK  152  A    between atoms: _378  and  _381
REMARK  153  A    between atoms: _381  and  _382
REMARK  154  A    between atoms: _392  and  _394
REMARK  155  A    between atoms: _394  and  _395
REMARK  156  A    between atoms: _394  and  _397
REMARK  157  A    between atoms: _397  and  _398
REMARK  158  A    between atoms: _404  and  _406
REMARK  159  A    between atoms: _406  and  _407
REMARK  160  A    between atoms: _406  and  _409
REMARK  161  A    between atoms: _409  and  _410
REMARK  162  A    between atoms: _413  and  _415
REMARK  163  A    between atoms: _415  and  _416
REMARK  164  A    between atoms: _415  and  _418
REMARK  165  A    between atoms: _418  and  _419
REMARK  166  A    between atoms: _419  and  _420
REMARK  167  A    between atoms: _420  and  _421
REMARK  168  A    between atoms: _430  and  _432
REMARK  169  A    between atoms: _432  and  _433
REMARK  170  A    between atoms: _432  and  _435
REMARK  171  A    between atoms: _435  and  _436
REMARK  172  A    between atoms: _441  and  _443
REMARK  173  A    between atoms: _443  and  _444
REMARK  174  A    between atoms: _443  and  _446
REMARK  175  A    between atoms: _446  and  _447
REMARK  176  A    between atoms: _447  and  _448
REMARK  177  A    between atoms: _448  and  _449
REMARK  178  A    between atoms: _458  and  _460
REMARK  179  A    between atoms: _460  and  _461
REMARK  180  A    between atoms: _464  and  _466
REMARK  181  A    between atoms: _466  and  _467
REMARK  182  A    between atoms: _469  and  _471
REMARK  183  A    between atoms: _471  and  _472
REMARK  184  A    between atoms: _471  and  _474
REMARK  185  A    between atoms: _474  and  _475
REMARK  186  A    between atoms: _485  and  _487
REMARK  187  A    between atoms: _487  and  _488
REMARK  188  A    between atoms: _487  and  _490
REMARK  189  A    between atoms: _490  and  _491
REMARK  190  A    between atoms: _492  and  _494
REMARK  191  A    between atoms: _494  and  _495
REMARK  192  A    between atoms: _498  and  _500
REMARK  193  A    between atoms: _500  and  _501
REMARK  194  A    between atoms: _500  and  _503
REMARK  195  A    between atoms: _503  and  _504
REMARK  196  A    between atoms: _507  and  _509
REMARK  197  A    between atoms: _509  and  _510
REMARK  198  A    between atoms: _509  and  _512
REMARK  199  A    between atoms: _512  and  _513
REMARK  200  A    between atoms: _518  and  _519
REMARK  201  A    between atoms: _521  and  _523
REMARK  202  A    between atoms: _523  and  _524
REMARK  203  A    between atoms: _523  and  _526
REMARK  204  A    between atoms: _526  and  _527
REMARK  205  A    between atoms: _529  and  _531
REMARK  206  A    between atoms: _531  and  _532
REMARK  207  A    between atoms: _531  and  _534
REMARK  208  A    between atoms: _534  and  _535
REMARK  209  A    between atoms: _541  and  _543
REMARK  210  A    between atoms: _543  and  _544
REMARK  211  A    between atoms: _543  and  _546
REMARK  212  A    between atoms: _546  and  _547
REMARK  213  A    between atoms: _550  and  _552
REMARK  214  A    between atoms: _552  and  _553
REMARK  215  A    between atoms: _552  and  _555
REMARK  216  A    between atoms: _555  and  _556
REMARK  217  A    between atoms: _556  and  _557
REMARK  218  A    between atoms: _559  and  _561
REMARK  219  A    between atoms: _561  and  _562
REMARK  220  A    between atoms: _561  and  _564
REMARK  221  A    between atoms: _564  and  _565
REMARK  222  A    between atoms: _567  and  _569
REMARK  223  A    between atoms: _569  and  _570
REMARK  224  A    between atoms: _569  and  _572
REMARK  225  A    between atoms: _572  and  _573
REMARK  226  A    between atoms: _575  and  _577
REMARK  227  A    between atoms: _577  and  _578
REMARK  228  A    between atoms: _577  and  _580
REMARK  229  A    between atoms: _580  and  _581
REMARK  230  A    between atoms: _586  and  _588
REMARK  231  A    between atoms: _588  and  _589
REMARK  232  A    between atoms: _588  and  _591
REMARK  233  A    between atoms: _591  and  _592
REMARK  234  A    between atoms: _597  and  _599
REMARK  235  A    between atoms: _599  and  _600
REMARK  236  A    between atoms: _599  and  _602
REMARK  237  A    between atoms: _602  and  _603
REMARK  238  A    between atoms: _606  and  _608
REMARK  239  A    between atoms: _608  and  _609
REMARK  240  A    between atoms: _612  and  _614
REMARK  241  A    between atoms: _614  and  _615
REMARK  242  A    between atoms: _614  and  _617
REMARK  243  A    between atoms: _617  and  _618
REMARK  244  A    between atoms: _623  and  _625
REMARK  245  A    between atoms: _625  and  _626
REMARK  246  A    between atoms: _625  and  _628
REMARK  247  A    between atoms: _628  and  _629
REMARK  248  A    between atoms: _632  and  _634
REMARK  249  A    between atoms: _634  and  _635
REMARK  250  A    between atoms: _634  and  _637
REMARK  251  A    between atoms: _637  and  _638
REMARK  252  A    between atoms: _643  and  _644
REMARK  253  A    between atoms: _646  and  _648
REMARK  254  A    between atoms: _648  and  _649
REMARK  255  A    between atoms: _648  and  _651
REMARK  256  A    between atoms: _651  and  _652
REMARK  257  A    between atoms: _657  and  _658
REMARK  258  A    between atoms: _660  and  _662
REMARK  259  A    between atoms: _662  and  _663
REMARK  260  A    between atoms: _662  and  _665
REMARK  261  A    between atoms: _668  and  _670
REMARK  262  A    between atoms: _670  and  _671
REMARK  263  A    between atoms: _670  and  _673
REMARK  264  A    between atoms: _673  and  _674
REMARK  265  A    between atoms: _679  and  _681
REMARK  266  A    between atoms: _681  and  _682
REMARK  267  A    between atoms: _685  and  _687
REMARK  268  A    between atoms: _687  and  _688
REMARK  269  A    between atoms: _687  and  _690
REMARK  270  A    between atoms: _690  and  _691
REMARK  271  A    between atoms: _691  and  _692
REMARK  272  A    between atoms: _692  and  _693
REMARK  273  A    between atoms: _702  and  _704
REMARK  274  A    between atoms: _704  and  _705
REMARK  275  A    between atoms: _704  and  _707
REMARK  276  A    between atoms: _707  and  _708
REMARK  277  A    between atoms: _711  and  _713
REMARK  278  A    between atoms: _713  and  _714
REMARK  279  A    between atoms: _713  and  _716
REMARK  280  A    between atoms: _716  and  _717
REMARK  281  A    between atoms: _720  and  _722
REMARK  282  A    between atoms: _722  and  _723
REMARK  283  A    between atoms: _722  and  _725
REMARK  284  A    between atoms: _725  and  _726
REMARK                            x       y       z     vdW  Elec       q    Type
REMARK                         _______ _______ _______ _____ _____    ______ ____
ROOT
ATOM      1  CA  SER A   1      -9.505  26.415  15.438  0.00  0.00    +0.163 C 
ENDROOT
BRANCH   1   2
ATOM      2  N   SER A   1      -8.984  27.667  15.917  0.00  0.00    -0.237 NA
ATOM      3  H   SER A   1      -9.552  28.218  16.592  0.00  0.00    +0.142 HD
ENDBRANCH   1   2
BRANCH   1   4
ATOM      4  C   SER A   1     -10.880  26.125  16.046  0.00  0.00    +0.227 C 
ATOM      5  O   SER A   1     -11.007  26.388  17.257  0.00  0.00    -0.287 OA
ENDBRANCH   1   4
BRANCH   1   6
ATOM      6  CB  SER A   1      -8.566  25.311  15.950  0.00  0.00    +0.162 C 
BRANCH   6   7
ATOM      7  OG  SER A   1      -9.091  24.015  15.984  0.00  0.00    -0.380 OA
ATOM      8  H   SER A   1      -9.357  23.744  15.070  0.00  0.00    +0.211 HD
ENDBRANCH   6   7
ENDBRANCH   1   6
TORSDOF 4
REMARK  Name = ../refined-set-2016/1b0h/1b0h_pocket.pdb
REMARK  284 active torsions:
REMARK  status: ('A' for Active; 'I' for Inactive)
REMARK    1  A    between atoms: _1  and  _3
REMARK    2  A    between atoms: _3  and  _4
REMARK    3  A    between atoms: _3  and  _6
REMARK    4  A    between atoms: _6  and  _7
REMARK    5  A    between atoms: _12  and  _14
REMARK    6  A    between atoms: _14  and  _15
REMARK    7  A    between atoms: _17  and  _19
REMARK    8  A    between atoms: _19  and  _20
REMARK    9  A    between atoms: _19  and  _22
REMARK   10  A    between atoms: _22  and  _23
REMARK   11  A    between atoms: _25  and  _27
REMARK   12  A    between atoms: _27  and  _28
REMARK   13  A    between atoms: _27  and  _30
REMARK   14  A    between atoms: _30  and  _31
REMARK   15  A    between atoms: _31  and  _32
REMARK   16  A    between atoms: _37  and  _39
REMARK   17  A    between atoms: _39  and  _40
REMARK   18  A    between atoms: _39  and  _42
REMARK   19  A    between atoms: _42  and  _43
REMARK   20  A    between atoms: _46  and  _48
REMARK   21  A    between atoms: _48  and  _49
REMARK   22  A    between atoms: _48  and  _51
REMARK   23  A    between atoms: _51  and  _52
REMARK   24  A    between atoms: _52  and  _53
REMARK   25  A    between atoms: _56  and  _58
REMARK   26  A    between atoms: _58  and  _59
REMARK   27  A    between atoms: _61  and  _63
REMARK   28  A    between atoms: _63  and  _64
REMARK   29  A    between atoms: _63  and  _66
REMARK   30  A    between atoms: _70  and  _71
REMARK   31  A    between atoms: _76  and  _78
REMARK   32  A    between atoms: _78  and  _79
REMARK   33  A    between atoms: _78  and  _81
REMARK   34  A    between atoms: _81  and  _82
REMARK   35  A    between atoms: _82  and  _83
REMARK   36  A    between atoms: _86  and  _88
REMARK   37  A    between atoms: _88  and  _89
REMARK   38  A    between atoms: _88  and  _91
REMARK   39  A    between atoms: _91  and  _92
REMARK   40  A    between atoms: _94  and  _96
REMARK   41  A    between atoms: _96  and  _97
REMARK   42  A    between atoms: _96  and  _99
REMARK   43  A    between atoms: _99  and  _100
REMARK   44  A    between atoms: _105  and  _107
REMARK   45  A    between atoms: _107  and  _108
REMARK   46  A    between atoms: _107  and  _110
REMARK   47  A    between atoms: _110  and  _111
REMARK   48  A    between atoms: _111  and  _112
REMARK   49  A    between atoms: _112  and  _113
REMARK   50  A    between atoms: _123  and  _124
REMARK   51  A    between atoms: _129  and  _131
REMARK   52  A    between atoms: _131  and  _132
REMARK   53  A    between atoms: _131  and  _134
REMARK   54  A    between atoms: _134  and  _135
REMARK   55  A    between atoms: _140  and  _141
REMARK   56  A    between atoms: _143  and  _145
REMARK   57  A    between atoms: _145  and  _146
REMARK   58  A    between atoms: _145  and  _148
REMARK   59  A    between atoms: _148  and  _149
REMARK   60  A    between atoms: _154  and  _155
REMARK   61  A    between atoms: _157  and  _159
REMARK   62  A    between atoms: _159  and  _160
REMARK   63  A    between atoms: _159  and  _162
REMARK   64  A    between atoms: _165  and  _167
REMARK   65  A    between atoms: _167  and  _168
REMARK   66  A    between atoms: _167  and  _170
REMARK   67  A    between atoms: _170  and  _171
REMARK   68  A    between atoms: _177  and  _178
REMARK   69  A    between atoms: _183  and  _185
REMARK   70  A    between atoms: _185  and  _186
REMARK   71  A    between atoms: _185  and  _188
REMARK   72  A    between atoms: _188  and  _189
REMARK   73  A    between atoms: _191  and  _193
REMARK   74  A    between atoms: _193  and  _194
REMARK   75  A    between atoms: _193  and  _196
REMARK   76  A    between atoms: _196  and  _197
REMARK   77  A    between atoms: _197  and  _198
REMARK   78  A    between atoms: _201  and  _203
REMARK   79  A    between atoms: _203  and  _204
REMARK   80  A    between atoms: _203  and  _206
REMARK   81  A    between atoms: _206  and  _207
REMARK   82  A    between atoms: _212  and  _213
REMARK   83  A    between atoms: _215  and  _217
REMARK   84  A    between atoms: _217  and  _218
REMARK   85  A    between atoms: _217  and  _220
REMARK   86  A    between atoms: _220  and  _221
REMARK   87  A    between atoms: _226  and  _228
REMARK   88  A    between atoms: _228  and  _229
REMARK   89  A    between atoms: _228  and  _231
REMARK   90  A    between atoms: _231  and  _232
REMARK   91  A    between atoms: _237  and  _239
REMARK   92  A    between atoms: _239  and  _240
REMARK   93  A    between atoms: _239  and  _242
REMARK   94  A    between atoms: _242  and  _243
REMARK   95  A    between atoms: _243  and  _244
REMARK   96  A    between atoms: _246  and  _248
REMARK   97  A    between atoms: _248  and  _249
REMARK   98  A    between atoms: _248  and  _251
REMARK   99  A    between atoms: _251  and  _252
REMARK  100  A    between atoms: _257  and  _258
REMARK  101  A    between atoms: _260  and  _262
REMARK  102  A    between atoms: _262  and  _263
REMARK  103  A    between atoms: _262  and  _265
REMARK  104  A    between atoms: _265  and  _266
REMARK  105  A    between atoms: _269  and  _271
REMARK  106  A    between atoms: _271  and  _272
REMARK  107  A    between atoms: _271  and  _274
REMARK  108  A    between atoms: _274  and  _275
REMARK  109  A    between atoms: _275  and  _491
REMARK  110  A    between atoms: _276  and  _278
REMARK  111  A    between atoms: _278  and  _279
REMARK  112  A    between atoms: _278  and  _281
REMARK  113  A    between atoms: _281  and  _282
REMARK  114  A    between atoms: _285  and  _287
REMARK  115  A    between atoms: _287  and  _288
REMARK  116  A    between atoms: _287  and  _290
REMARK  117  A    between atoms: _290  and  _291
REMARK  118  A    between atoms: _296  and  _297
REMARK  119  A    between atoms: _299  and  _301
REMARK  120  A    between atoms: _301  and  _302
REMARK  121  A    between atoms: _301  and  _304
REMARK  122  A    between atoms: _304  and  _305
REMARK  123  A    between atoms: _310  and  _311
REMARK  124  A    between atoms: _313  and  _315
REMARK  125  A    between atoms: _315  and  _316
REMARK  126  A    between atoms: _315  and  _318
REMARK  127  A    between atoms: _318  and  _319
REMARK  128  A    between atoms: _319  and  _320
REMARK  129  A    between atoms: _323  and  _325
REMARK  130  A    between atoms: _325  and  _326
REMARK  131  A    between atoms: _325  and  _328
REMARK  132  A    between atoms: _328  and  _329
REMARK  133  A    between atoms: _334  and  _335
REMARK  134  A    between atoms: _337  and  _339
REMARK  135  A    between atoms: _339  and  _340
REMARK  136  A    between atoms: _339  and  _342
REMARK  137  A    between atoms: _342  and  _343
REMARK  138  A    between atoms: _348  and  _350
REMARK  139  A    between atoms: _350  and  _351
REMARK  140  A    between atoms: _350  and  _353
REMARK  141  A    between atoms: _353  and  _354
REMARK  142  A    between atoms: _356  and  _358
REMARK  143  A    between atoms: _358  and  _359
REMARK  144  A    between atoms: _358  and  _361
REMARK  145  A    between atoms: _361  and  _362
REMARK  146  A    between atoms: _365  and  _367
REMARK  147  A    between atoms: _367  and  _368
REMARK  148  A    between atoms: _367  and  _370
REMARK  149  A    between atoms: _370  and  _371
REMARK  150  A    between atoms: _376  and  _378
REMARK  151  A    between atoms: _378  and  _379
REMARK  152  A    between atoms: _378  and  _381
REMARK  153  A    between atoms: _381  and  _382
REMARK  154  A    between atoms: _392  and  _394
REMARK  155  A    between atoms: _394  and  _395
REMARK  156  A    between atoms: _394  and  _397
REMARK  157  A    between atoms: _397  and  _398
REMARK  158  A    between atoms: _404  and  _406
REMARK  159  A    between atoms: _406  and  _407
REMARK  160  A    between atoms: _406  and  _409
REMARK  161  A    between atoms: _409  and  _410
REMARK  162  A    between atoms: _413  and  _415
REMARK  163  A    between atoms: _415  and  _416
REMARK  164  A    between atoms: _415  and  _418
REMARK  165  A    between atoms: _418  and  _419
REMARK  166  A    between atoms: _419  and  _420
REMARK  167  A    between atoms: _420  and  _421
REMARK  168  A    between atoms: _430  and  _432
REMARK  169  A    between atoms: _432  and  _433
REMARK  170  A    between atoms: _432  and  _435
REMARK  171  A    between atoms: _435  and  _436
REMARK  172  A    between atoms: _441  and  _443
REMARK  173  A    between atoms: _443  and  _444
REMARK  174  A    between atoms: _443  and  _446
REMARK  175  A    between atoms: _446  and  _447
REMARK  176  A    between atoms: _447  and  _448
REMARK  177  A    between atoms: _448  and  _449
REMARK  178  A    between atoms: _458  and  _460
REMARK  179  A    between atoms: _460  and  _461
REMARK  180  A    between atoms: _464  and  _466
REMARK  181  A    between atoms: _466  and  _467
REMARK  182  A    between atoms: _469  and  _471
REMARK  183  A    between atoms: _471  and  _472
REMARK  184  A    between atoms: _471  and  _474
REMARK  185  A    between atoms: _474  and  _475
REMARK  186  A    between atoms: _485  and  _487
REMARK  187  A    between atoms: _487  and  _488
REMARK  188  A    between atoms: _487  and  _490
REMARK  189  A    between atoms: _490  and  _491
REMARK  190  A    between atoms: _492  and  _494
REMARK  191  A    between atoms: _494  and  _495
REMARK  192  A    between atoms: _498  and  _500
REMARK  193  A    between atoms: _500  and  _501
REMARK  194  A    between atoms: _500  and  _503
REMARK  195  A    between atoms: _503  and  _504
REMARK  196  A    between atoms: _507  and  _509
REMARK  197  A    between atoms: _509  and  _510
REMARK  198  A    between atoms: _509  and  _512
REMARK  199  A    between atoms: _512  and  _513
REMARK  200  A    between atoms: _518  and  _519
REMARK  201  A    between atoms: _521  and  _523
REMARK  202  A    between atoms: _523  and  _524
REMARK  203  A    between atoms: _523  and  _526
REMARK  204  A    between atoms: _526  and  _527
REMARK  205  A    between atoms: _529  and  _531
REMARK  206  A    between atoms: _531  and  _532
REMARK  207  A    between atoms: _531  and  _534
REMARK  208  A    between atoms: _534  and  _535
REMARK  209  A    between atoms: _541  and  _543
REMARK  210  A    between atoms: _543  and  _544
REMARK  211  A    between atoms: _543  and  _546
REMARK  212  A    between atoms: _546  and  _547
REMARK  213  A    between atoms: _550  and  _552
REMARK  214  A    between atoms: _552  and  _553
REMARK  215  A    between atoms: _552  and  _555
REMARK  216  A    between atoms: _555  and  _556
REMARK  217  A    between atoms: _556  and  _557
REMARK  218  A    between atoms: _559  and  _561
REMARK  219  A    between atoms: _561  and  _562
REMARK  220  A    between atoms: _561  and  _564
REMARK  221  A    between atoms: _564  and  _565
REMARK  222  A    between atoms: _567  and  _569
REMARK  223  A    between atoms: _569  and  _570
REMARK  224  A    between atoms: _569  and  _572
REMARK  225  A    between atoms: _572  and  _573
REMARK  226  A    between atoms: _575  and  _577
REMARK  227  A    between atoms: _577  and  _578
REMARK  228  A    between atoms: _577  and  _580
REMARK  229  A    between atoms: _580  and  _581
REMARK  230  A    between atoms: _586  and  _588
REMARK  231  A    between atoms: _588  and  _589
REMARK  232  A    between atoms: _588  and  _591
REMARK  233  A    between atoms: _591  and  _592
REMARK  234  A    between atoms: _597  and  _599
REMARK  235  A    between atoms: _599  and  _600
REMARK  236  A    between atoms: _599  and  _602
REMARK  237  A    between atoms: _602  and  _603
REMARK  238  A    between atoms: _606  and  _608
REMARK  239  A    between atoms: _608  and  _609
REMARK  240  A    between atoms: _612  and  _614
REMARK  241  A    between atoms: _614  and  _615
REMARK  242  A    between atoms: _614  and  _617
REMARK  243  A    between atoms: _617  and  _618
REMARK  244  A    between atoms: _623  and  _625
REMARK  245  A    between atoms: _625  and  _626
REMARK  246  A    between atoms: _625  and  _628
REMARK  247  A    between atoms: _628  and  _629
REMARK  248  A    between atoms: _632  and  _634
REMARK  249  A    between atoms: _634  and  _635
REMARK  250  A    between atoms: _634  and  _637
REMARK  251  A    between atoms: _637  and  _638
REMARK  252  A    between atoms: _643  and  _644
REMARK  253  A    between atoms: _646  and  _648
REMARK  254  A    between atoms: _648  and  _649
REMARK  255  A    between atoms: _648  and  _651
REMARK  256  A    between atoms: _651  and  _652
REMARK  257  A    between atoms: _657  and  _658
REMARK  258  A    between atoms: _660  and  _662
REMARK  259  A    between atoms: _662  and  _663
REMARK  260  A    between atoms: _662  and  _665
REMARK  261  A    between atoms: _668  and  _670
REMARK  262  A    between atoms: _670  and  _671
REMARK  263  A    between atoms: _670  and  _673
REMARK  264  A    between atoms: _673  and  _674
REMARK  265  A    between atoms: _679  and  _681
REMARK  266  A    between atoms: _681  and  _682
REMARK  267  A    between atoms: _685  and  _687
REMARK  268  A    between atoms: _687  and  _688
REMARK  269  A    between atoms: _687  and  _690
REMARK  270  A    between atoms: _690  and  _691
REMARK  271  A    between atoms: _691  and  _692
REMARK  272  A    between atoms: _692  and  _693
REMARK  273  A    between atoms: _702  and  _704
REMARK  274  A    between atoms: _704  and  _705
REMARK  275  A    between atoms: _704  and  _707
REMARK  276  A    between atoms: _707  and  _708
REMARK  277  A    between atoms: _711  and  _713
REMARK  278  A    between atoms: _713  and  _714
REMARK  279  A    between atoms: _713  and  _716
REMARK  280  A    between atoms: _716  and  _717
REMARK  281  A    between atoms: _720  and  _722
REMARK  282  A    between atoms: _722  and  _723
REMARK  283  A    between atoms: _722  and  _725
REMARK  284  A    between atoms: _725  and  _726
REMARK                            x       y       z     vdW  Elec       q    Type
REMARK                         _______ _______ _______ _____ _____    ______ ____
ROOT
ATOM      1  C   LEU A   1     -11.165  22.469  18.710  0.00  0.00    +0.238 C 
ATOM      2  O   LEU A   1     -11.676  22.140  19.786  0.00  0.00    -0.274 OA
ATOM      3  N   HIS A   2     -10.080  23.246  18.603  0.00  0.00    -0.298 N 
ATOM      4  H   HIS A   2      -9.738  23.562  17.673  0.00  0.00    +0.150 HD
ENDROOT
BRANCH   1   5
ATOM      5  CA  LEU A   1     -11.825  21.990  17.412  0.00  0.00    +0.145 C 
BRANCH   5   6
ATOM      6  N   LEU A   1     -12.120  23.100  16.540  0.00  0.00    -0.238 NA
ATOM      7  H   LEU A   1     -11.719  23.111  15.581  0.00  0.00    +0.142 HD
ENDBRANCH   5   6
BRANCH   5   8
ATOM      8  CB  LEU A   1     -10.906  20.970  16.727  0.00  0.00    +0.026 C 
BRANCH   8   9
ATOM      9  CG  LEU A   1     -10.393  19.812  17.579  0.00  0.00    +0.002 C 
ATOM     10  CD2 LEU A   1     -11.518  18.955  18.135  0.00  0.00    +0.000 C 
ATOM     11  CD1 LEU A   1      -9.480  18.915  16.746  0.00  0.00    +0.000 C 
ENDBRANCH   8   9
ENDBRANCH   5   8
ENDBRANCH   1   5
BRANCH   3  12
ATOM     12  CA  HIS A   2      -9.395  23.635  19.823  0.00  0.00    +0.143 C 
BRANCH  12  13
ATOM     13  C   HIS A   2     -10.240  24.544  20.728  0.00  0.00    +0.227 C 
ATOM     14  O   HIS A   2     -10.153  24.395  21.945  0.00  0.00    -0.286 OA
ENDBRANCH  12  13
BRANCH  12  15
ATOM     15  CB  HIS A   2      -8.025  24.247  19.585  0.00  0.00    +0.075 C 
BRANCH  15  16
ATOM     16  CG  HIS A   2      -7.172  23.300  18.794  0.00  0.00    +0.082 A 
ATOM     17  ND1 HIS A   2      -7.112  21.959  19.051  0.00  0.00    -0.227 NA
ATOM     18  CE1 HIS A   2      -6.251  21.392  18.198  0.00  0.00    +0.199 A 
ATOM     19  NE2 HIS A   2      -5.816  22.347  17.364  0.00  0.00    -0.221 NA
ATOM     20  CD2 HIS A   2      -6.351  23.558  17.724  0.00  0.00    +0.115 A 
ENDBRANCH  15  16
ENDBRANCH  12  15
ENDBRANCH   3  12
TORSDOF 8
REMARK  Name = ../refined-set-2016/1b0h/1b0h_pocket.pdb
REMARK  284 active torsions:
REMARK  status: ('A' for Active; 'I' for Inactive)
REMARK    1  A    between atoms: _1  and  _3
REMARK    2  A    between atoms: _3  and  _4
REMARK    3  A    between atoms: _3  and  _6
REMARK    4  A    between atoms: _6  and  _7
REMARK    5  A    between atoms: _12  and  _14
REMARK    6  A    between atoms: _14  and  _15
REMARK    7  A    between atoms: _17  and  _19
REMARK    8  A    between atoms: _19  and  _20
REMARK    9  A    between atoms: _19  and  _22
REMARK   10  A    between atoms: _22  and  _23
REMARK   11  A    between atoms: _25  and  _27
REMARK   12  A    between atoms: _27  and  _28
REMARK   13  A    between atoms: _27  and  _30
REMARK   14  A    between atoms: _30  and  _31
REMARK   15  A    between atoms: _31  and  _32
REMARK   16  A    between atoms: _37  and  _39
REMARK   17  A    between atoms: _39  and  _40
REMARK   18  A    between atoms: _39  and  _42
REMARK   19  A    between atoms: _42  and  _43
REMARK   20  A    between atoms: _46  and  _48
REMARK   21  A    between atoms: _48  and  _49
REMARK   22  A    between atoms: _48  and  _51
REMARK   23  A    between atoms: _51  and  _52
REMARK   24  A    between atoms: _52  and  _53
REMARK   25  A    between atoms: _56  and  _58
REMARK   26  A    between atoms: _58  and  _59
REMARK   27  A    between atoms: _61  and  _63
REMARK   28  A    between atoms: _63  and  _64
REMARK   29  A    between atoms: _63  and  _66
REMARK   30  A    between atoms: _70  and  _71
REMARK   31  A    between atoms: _76  and  _78
REMARK   32  A    between atoms: _78  and  _79
REMARK   33  A    between atoms: _78  and  _81
REMARK   34  A    between atoms: _81  and  _82
REMARK   35  A    between atoms: _82  and  _83
REMARK   36  A    between atoms: _86  and  _88
REMARK   37  A    between atoms: _88  and  _89
REMARK   38  A    between atoms: _88  and  _91
REMARK   39  A    between atoms: _91  and  _92
REMARK   40  A    between atoms: _94  and  _96
REMARK   41  A    between atoms: _96  and  _97
REMARK   42  A    between atoms: _96  and  _99
REMARK   43  A    between atoms: _99  and  _100
REMARK   44  A    between atoms: _105  and  _107
REMARK   45  A    between atoms: _107  and  _108
REMARK   46  A    between atoms: _107  and  _110
REMARK   47  A    between atoms: _110  and  _111
REMARK   48  A    between atoms: _111  and  _112
REMARK   49  A    between atoms: _112  and  _113
REMARK   50  A    between atoms: _123  and  _124
REMARK   51  A    between atoms: _129  and  _131
REMARK   52  A    between atoms: _131  and  _132
REMARK   53  A    between atoms: _131  and  _134
REMARK   54  A    between atoms: _134  and  _135
REMARK   55  A    between atoms: _140  and  _141
REMARK   56  A    between atoms: _143  and  _145
REMARK   57  A    between atoms: _145  and  _146
REMARK   58  A    between atoms: _145  and  _148
REMARK   59  A    between atoms: _148  and  _149
REMARK   60  A    between atoms: _154  and  _155
REMARK   61  A    between atoms: _157  and  _159
REMARK   62  A    between atoms: _159  and  _160
REMARK   63  A    between atoms: _159  and  _162
REMARK   64  A    between atoms: _165  and  _167
REMARK   65  A    between atoms: _167  and  _168
REMARK   66  A    between atoms: _167  and  _170
REMARK   67  A    between atoms: _170  and  _171
REMARK   68  A    between atoms: _177  and  _178
REMARK   69  A    between atoms: _183  and  _185
REMARK   70  A    between atoms: _185  and  _186
REMARK   71  A    between atoms: _185  and  _188
REMARK   72  A    between atoms: _188  and  _189
REMARK   73  A    between atoms: _191  and  _193
REMARK   74  A    between atoms: _193  and  _194
REMARK   75  A    between atoms: _193  and  _196
REMARK   76  A    between atoms: _196  and  _197
REMARK   77  A    between atoms: _197  and  _198
REMARK   78  A    between atoms: _201  and  _203
REMARK   79  A    between atoms: _203  and  _204
REMARK   80  A    between atoms: _203  and  _206
REMARK   81  A    between atoms: _206  and  _207
REMARK   82  A    between atoms: _212  and  _213
REMARK   83  A    between atoms: _215  and  _217
REMARK   84  A    between atoms: _217  and  _218
REMARK   85  A    between atoms: _217  and  _220
REMARK   86  A    between atoms: _220  and  _221
REMARK   87  A    between atoms: _226  and  _228
REMARK   88  A    between atoms: _228  and  _229
REMARK   89  A    between atoms: _228  and  _231
REMARK   90  A    between atoms: _231  and  _232
REMARK   91  A    between atoms: _237  and  _239
REMARK   92  A    between atoms: _239  and  _240
REMARK   93  A    between atoms: _239  and  _242
REMARK   94  A    between atoms: _242  and  _243
REMARK   95  A    between atoms: _243  and  _244
REMARK   96  A    between atoms: _246  and  _248
REMARK   97  A    between atoms: _248  and  _249
REMARK   98  A    between atoms: _248  and  _251
REMARK   99  A    between atoms: _251  and  _252
REMARK  100  A    between atoms: _257  and  _258
REMARK  101  A    between atoms: _260  and  _262
REMARK  102  A    between atoms: _262  and  _263
REMARK  103  A    between atoms: _262  and  _265
REMARK  104  A    between atoms: _265  and  _266
REMARK  105  A    between atoms: _269  and  _271
REMARK  106  A    between atoms: _271  and  _272
REMARK  107  A    between atoms: _271  and  _274
REMARK  108  A    between atoms: _274  and  _275
REMARK  109  A    between atoms: _275  and  _491
REMARK  110  A    between atoms: _276  and  _278
REMARK  111  A    between atoms: _278  and  _279
REMARK  112  A    between atoms: _278  and  _281
REMARK  113  A    between atoms: _281  and  _282
REMARK  114  A    between atoms: _285  and  _287
REMARK  115  A    between atoms: _287  and  _288
REMARK  116  A    between atoms: _287  and  _290
REMARK  117  A    between atoms: _290  and  _291
REMARK  118  A    between atoms: _296  and  _297
REMARK  119  A    between atoms: _299  and  _301
REMARK  120  A    between atoms: _301  and  _302
REMARK  121  A    between atoms: _301  and  _304
REMARK  122  A    between atoms: _304  and  _305
REMARK  123  A    between atoms: _310  and  _311
REMARK  124  A    between atoms: _313  and  _315
REMARK  125  A    between atoms: _315  and  _316
REMARK  126  A    between atoms: _315  and  _318
REMARK  127  A    between atoms: _318  and  _319
REMARK  128  A    between atoms: _319  and  _320
REMARK  129  A    between atoms: _323  and  _325
REMARK  130  A    between atoms: _325  and  _326
REMARK  131  A    between atoms: _325  and  _328
REMARK  132  A    between atoms: _328  and  _329
REMARK  133  A    between atoms: _334  and  _335
REMARK  134  A    between atoms: _337  and  _339
REMARK  135  A    between atoms: _339  and  _340
REMARK  136  A    between atoms: _339  and  _342
REMARK  137  A    between atoms: _342  and  _343
REMARK  138  A    between atoms: _348  and  _350
REMARK  139  A    between atoms: _350  and  _351
REMARK  140  A    between atoms: _350  and  _353
REMARK  141  A    between atoms: _353  and  _354
REMARK  142  A    between atoms: _356  and  _358
REMARK  143  A    between atoms: _358  and  _359
REMARK  144  A    between atoms: _358  and  _361
REMARK  145  A    between atoms: _361  and  _362
REMARK  146  A    between atoms: _365  and  _367
REMARK  147  A    between atoms: _367  and  _368
REMARK  148  A    between atoms: _367  and  _370
REMARK  149  A    between atoms: _370  and  _371
REMARK  150  A    between atoms: _376  and  _378
REMARK  151  A    between atoms: _378  and  _379
REMARK  152  A    between atoms: _378  and  _381
REMARK  153  A    between atoms: _381  and  _382
REMARK  154  A    between atoms: _392  and  _394
REMARK  155  A    between atoms: _394  and  _395
REMARK  156  A    between atoms: _394  and  _397
REMARK  157  A    between atoms: _397  and  _398
REMARK  158  A    between atoms: _404  and  _406
REMARK  159  A    between atoms: _406  and  _407
REMARK  160  A    between atoms: _406  and  _409
REMARK  161  A    between atoms: _409  and  _410
REMARK  162  A    between atoms: _413  and  _415
REMARK  163  A    between atoms: _415  and  _416
REMARK  164  A    between atoms: _415  and  _418
REMARK  165  A    between atoms: _418  and  _419
REMARK  166  A    between atoms: _419  and  _420
REMARK  167  A    between atoms: _420  and  _421
REMARK  168  A    between atoms: _430  and  _432
REMARK  169  A    between atoms: _432  and  _433
REMARK  170  A    between atoms: _432  and  _435
REMARK  171  A    between atoms: _435  and  _436
REMARK  172  A    between atoms: _441  and  _443
REMARK  173  A    between atoms: _443  and  _444
REMARK  174  A    between atoms: _443  and  _446
REMARK  175  A    between atoms: _446  and  _447
REMARK  176  A    between atoms: _447  and  _448
REMARK  177  A    between atoms: _448  and  _449
REMARK  178  A    between atoms: _458  and  _460
REMARK  179  A    between atoms: _460  and  _461
REMARK  180  A    between atoms: _464  and  _466
REMARK  181  A    between atoms: _466  and  _467
REMARK  182  A    between atoms: _469  and  _471
REMARK  183  A    between atoms: _471  and  _472
REMARK  184  A    between atoms: _471  and  _474
REMARK  185  A    between atoms: _474  and  _475
REMARK  186  A    between atoms: _485  and  _487
REMARK  187  A    between atoms: _487  and  _488
REMARK  188  A    between atoms: _487  and  _490
REMARK  189  A    between atoms: _490  and  _491
REMARK  190  A    between atoms: _492  and  _494
REMARK  191  A    between atoms: _494  and  _495
REMARK  192  A    between atoms: _498  and  _500
REMARK  193  A    between atoms: _500  and  _501
REMARK  194  A    between atoms: _500  and  _503
REMARK  195  A    between atoms: _503  and  _504
REMARK  196  A    between atoms: _507  and  _509
REMARK  197  A    between atoms: _509  and  _510
REMARK  198  A    between atoms: _509  and  _512
REMARK  199  A    between atoms: _512  and  _513
REMARK  200  A    between atoms: _518  and  _519
REMARK  201  A    between atoms: _521  and  _523
REMARK  202  A    between atoms: _523  and  _524
REMARK  203  A    between atoms: _523  and  _526
REMARK  204  A    between atoms: _526  and  _527
REMARK  205  A    between atoms: _529  and  _531
REMARK  206  A    between atoms: _531  and  _532
REMARK  207  A    between atoms: _531  and  _534
REMARK  208  A    between atoms: _534  and  _535
REMARK  209  A    between atoms: _541  and  _543
REMARK  210  A    between atoms: _543  and  _544
REMARK  211  A    between atoms: _543  and  _546
REMARK  212  A    between atoms: _546  and  _547
REMARK  213  A    between atoms: _550  and  _552
REMARK  214  A    between atoms: _552  and  _553
REMARK  215  A    between atoms: _552  and  _555
REMARK  216  A    between atoms: _555  and  _556
REMARK  217  A    between atoms: _556  and  _557
REMARK  218  A    between atoms: _559  and  _561
REMARK  219  A    between atoms: _561  and  _562
REMARK  220  A    between atoms: _561  and  _564
REMARK  221  A    between atoms: _564  and  _565
REMARK  222  A    between atoms: _567  and  _569
REMARK  223  A    between atoms: _569  and  _570
REMARK  224  A    between atoms: _569  and  _572
REMARK  225  A    between atoms: _572  and  _573
REMARK  226  A    between atoms: _575  and  _577
REMARK  227  A    between atoms: _577  and  _578
REMARK  228  A    between atoms: _577  and  _580
REMARK  229  A    between atoms: _580  and  _581
REMARK  230  A    between atoms: _586  and  _588
REMARK  231  A    between atoms: _588  and  _589
REMARK  232  A    between atoms: _588  and  _591
REMARK  233  A    between atoms: _591  and  _592
REMARK  234  A    between atoms: _597  and  _599
REMARK  235  A    between atoms: _599  and  _600
REMARK  236  A    between atoms: _599  and  _602
REMARK  237  A    between atoms: _602  and  _603
REMARK  238  A    between atoms: _606  and  _608
REMARK  239  A    between atoms: _608  and  _609
REMARK  240  A    between atoms: _612  and  _614
REMARK  241  A    between atoms: _614  and  _615
REMARK  242  A    between atoms: _614  and  _617
REMARK  243  A    between atoms: _617  and  _618
REMARK  244  A    between atoms: _623  and  _625
REMARK  245  A    between atoms: _625  and  _626
REMARK  246  A    between atoms: _625  and  _628
REMARK  247  A    between atoms: _628  and  _629
REMARK  248  A    between atoms: _632  and  _634
REMARK  249  A    between atoms: _634  and  _635
REMARK  250  A    between atoms: _634  and  _637
REMARK  251  A    between atoms: _637  and  _638
REMARK  252  A    between atoms: _643  and  _644
REMARK  253  A    between atoms: _646  and  _648
REMARK  254  A    between atoms: _648  and  _649
REMARK  255  A    between atoms: _648  and  _651
REMARK  256  A    between atoms: _651  and  _652
REMARK  257  A    between atoms: _657  and  _658
REMARK  258  A    between atoms: _660  and  _662
REMARK  259  A    between atoms: _662  and  _663
REMARK  260  A    between atoms: _662  and  _665
REMARK  261  A    between atoms: _668  and  _670
REMARK  262  A    between atoms: _670  and  _671
REMARK  263  A    between atoms: _670  and  _673
REMARK  264  A    between atoms: _673  and  _674
REMARK  265  A    between atoms: _679  and  _681
REMARK  266  A    between atoms: _681  and  _682
REMARK  267  A    between atoms: _685  and  _687
REMARK  268  A    between atoms: _687  and  _688
REMARK  269  A    between atoms: _687  and  _690
REMARK  270  A    between atoms: _690  and  _691
REMARK  271  A    between atoms: _691  and  _692
REMARK  272  A    between atoms: _692  and  _693
REMARK  273  A    between atoms: _702  and  _704
REMARK  274  A    between atoms: _704  and  _705
REMARK  275  A    between atoms: _704  and  _707
REMARK  276  A    between atoms: _707  and  _708
REMARK  277  A    between atoms: _711  and  _713
REMARK  278  A    between atoms: _713  and  _714
REMARK  279  A    between atoms: _713  and  _716
REMARK  280  A    between atoms: _716  and  _717
REMARK  281  A    between atoms: _720  and  _722
REMARK  282  A    between atoms: _722  and  _723
REMARK  283  A    between atoms: _722  and  _725
REMARK  284  A    between atoms: _725  and  _726
REMARK                            x       y       z     vdW  Elec       q    Type
REMARK                         _______ _______ _______ _____ _____    ______ ____
ROOT
ATOM      1  CG  TRP A   1       0.493  27.146  13.023  0.00  0.00    -0.002 A 
ATOM      2  CD2 TRP A   1       0.452  25.983  13.847  0.00  0.00    +0.013 A 
ATOM      3  CE3 TRP A   1      -0.321  25.640  14.973  0.00  0.00    +0.001 A 
ATOM      4  CZ3 TRP A   1      -0.077  24.418  15.585  0.00  0.00    +0.000 A 
ATOM      5  CH2 TRP A   1       0.902  23.538  15.083  0.00  0.00    +0.001 A 
ATOM      6  CZ2 TRP A   1       1.651  23.853  13.975  0.00  0.00    +0.017 A 
ATOM      7  CE2 TRP A   1       1.422  25.085  13.380  0.00  0.00    +0.056 A 
ATOM      8  NE1 TRP A   1       2.031  25.671  12.283  0.00  0.00    -0.352 N 
ATOM      9  HE1 TRP A   1       2.796  25.253  11.717  0.00  0.00    +0.166 HD
ATOM     10  CD1 TRP A   1       1.452  26.899  12.070  0.00  0.00    +0.068 A 
ENDROOT
BRANCH   1  11
ATOM     11  CB  TRP A   1      -0.408  28.335  13.105  0.00  0.00    +0.053 C 
BRANCH  11  12
ATOM     12  CA  TRP A   1      -0.322  29.225  14.354  0.00  0.00    +0.137 C 
BRANCH  12  13
ATOM     13  N   TRP A   1      -1.388  30.218  14.217  0.00  0.00    -0.239 NA
ATOM     14  H   TRP A   1      -2.120  30.068  13.493  0.00  0.00    +0.142 HD
ENDBRANCH  12  13
BRANCH  12  15
ATOM     15  C   TRP A   1       1.100  29.702  14.532  0.00  0.00    +0.224 C 
ATOM     16  O   TRP A   1       1.775  29.313  15.481  0.00  0.00    -0.287 OA
ENDBRANCH  12  15
ENDBRANCH  11  12
ENDBRANCH   1  11
TORSDOF 4
REMARK  Name = ../refined-set-2016/1b0h/1b0h_pocket.pdb
REMARK  284 active torsions:
REMARK  status: ('A' for Active; 'I' for Inactive)
REMARK    1  A    between atoms: _1  and  _3
REMARK    2  A    between atoms: _3  and  _4
REMARK    3  A    between atoms: _3  and  _6
REMARK    4  A    between atoms: _6  and  _7
REMARK    5  A    between atoms: _12  and  _14
REMARK    6  A    between atoms: _14  and  _15
REMARK    7  A    between atoms: _17  and  _19
REMARK    8  A    between atoms: _19  and  _20
REMARK    9  A    between atoms: _19  and  _22
REMARK   10  A    between atoms: _22  and  _23
REMARK   11  A    between atoms: _25  and  _27
REMARK   12  A    between atoms: _27  and  _28
REMARK   13  A    between atoms: _27  and  _30
REMARK   14  A    between atoms: _30  and  _31
REMARK   15  A    between atoms: _31  and  _32
REMARK   16  A    between atoms: _37  and  _39
REMARK   17  A    between atoms: _39  and  _40
REMARK   18  A    between atoms: _39  and  _42
REMARK   19  A    between atoms: _42  and  _43
REMARK   20  A    between atoms: _46  and  _48
REMARK   21  A    between atoms: _48  and  _49
REMARK   22  A    between atoms: _48  and  _51
REMARK   23  A    between atoms: _51  and  _52
REMARK   24  A    between atoms: _52  and  _53
REMARK   25  A    between atoms: _56  and  _58
REMARK   26  A    between atoms: _58  and  _59
REMARK   27  A    between atoms: _61  and  _63
REMARK   28  A    between atoms: _63  and  _64
REMARK   29  A    between atoms: _63  and  _66
REMARK   30  A    between atoms: _70  and  _71
REMARK   31  A    between atoms: _76  and  _78
REMARK   32  A    between atoms: _78  and  _79
REMARK   33  A    between atoms: _78  and  _81
REMARK   34  A    between atoms: _81  and  _82
REMARK   35  A    between atoms: _82  and  _83
REMARK   36  A    between atoms: _86  and  _88
REMARK   37  A    between atoms: _88  and  _89
REMARK   38  A    between atoms: _88  and  _91
REMARK   39  A    between atoms: _91  and  _92
REMARK   40  A    between atoms: _94  and  _96
REMARK   41  A    between atoms: _96  and  _97
REMARK   42  A    between atoms: _96  and  _99
REMARK   43  A    between atoms: _99  and  _100
REMARK   44  A    between atoms: _105  and  _107
REMARK   45  A    between atoms: _107  and  _108
REMARK   46  A    between atoms: _107  and  _110
REMARK   47  A    between atoms: _110  and  _111
REMARK   48  A    between atoms: _111  and  _112
REMARK   49  A    between atoms: _112  and  _113
REMARK   50  A    between atoms: _123  and  _124
REMARK   51  A    between atoms: _129  and  _131
REMARK   52  A    between atoms: _131  and  _132
REMARK   53  A    between atoms: _131  and  _134
REMARK   54  A    between atoms: _134  and  _135
REMARK   55  A    between atoms: _140  and  _141
REMARK   56  A    between atoms: _143  and  _145
REMARK   57  A    between atoms: _145  and  _146
REMARK   58  A    between atoms: _145  and  _148
REMARK   59  A    between atoms: _148  and  _149
REMARK   60  A    between atoms: _154  and  _155
REMARK   61  A    between atoms: _157  and  _159
REMARK   62  A    between atoms: _159  and  _160
REMARK   63  A    between atoms: _159  and  _162
REMARK   64  A    between atoms: _165  and  _167
REMARK   65  A    between atoms: _167  and  _168
REMARK   66  A    between atoms: _167  and  _170
REMARK   67  A    between atoms: _170  and  _171
REMARK   68  A    between atoms: _177  and  _178
REMARK   69  A    between atoms: _183  and  _185
REMARK   70  A    between atoms: _185  and  _186
REMARK   71  A    between atoms: _185  and  _188
REMARK   72  A    between atoms: _188  and  _189
REMARK   73  A    between atoms: _191  and  _193
REMARK   74  A    between atoms: _193  and  _194
REMARK   75  A    between atoms: _193  and  _196
REMARK   76  A    between atoms: _196  and  _197
REMARK   77  A    between atoms: _197  and  _198
REMARK   78  A    between atoms: _201  and  _203
REMARK   79  A    between atoms: _203  and  _204
REMARK   80  A    between atoms: _203  and  _206
REMARK   81  A    between atoms: _206  and  _207
REMARK   82  A    between atoms: _212  and  _213
REMARK   83  A    between atoms: _215  and  _217
REMARK   84  A    between atoms: _217  and  _218
REMARK   85  A    between atoms: _217  and  _220
REMARK   86  A    between atoms: _220  and  _221
REMARK   87  A    between atoms: _226  and  _228
REMARK   88  A    between atoms: _228  and  _229
REMARK   89  A    between atoms: _228  and  _231
REMARK   90  A    between atoms: _231  and  _232
REMARK   91  A    between atoms: _237  and  _239
REMARK   92  A    between atoms: _239  and  _240
REMARK   93  A    between atoms: _239  and  _242
REMARK   94  A    between atoms: _242  and  _243
REMARK   95  A    between atoms: _243  and  _244
REMARK   96  A    between atoms: _246  and  _248
REMARK   97  A    between atoms: _248  and  _249
REMARK   98  A    between atoms: _248  and  _251
REMARK   99  A    between atoms: _251  and  _252
REMARK  100  A    between atoms: _257  and  _258
REMARK  101  A    between atoms: _260  and  _262
REMARK  102  A    between atoms: _262  and  _263
REMARK  103  A    between atoms: _262  and  _265
REMARK  104  A    between atoms: _265  and  _266
REMARK  105  A    between atoms: _269  and  _271
REMARK  106  A    between atoms: _271  and  _272
REMARK  107  A    between atoms: _271  and  _274
REMARK  108  A    between atoms: _274  and  _275
REMARK  109  A    between atoms: _275  and  _491
REMARK  110  A    between atoms: _276  and  _278
REMARK  111  A    between atoms: _278  and  _279
REMARK  112  A    between atoms: _278  and  _281
REMARK  113  A    between atoms: _281  and  _282
REMARK  114  A    between atoms: _285  and  _287
REMARK  115  A    between atoms: _287  and  _288
REMARK  116  A    between atoms: _287  and  _290
REMARK  117  A    between atoms: _290  and  _291
REMARK  118  A    between atoms: _296  and  _297
REMARK  119  A    between atoms: _299  and  _301
REMARK  120  A    between atoms: _301  and  _302
REMARK  121  A    between atoms: _301  and  _304
REMARK  122  A    between atoms: _304  and  _305
REMARK  123  A    between atoms: _310  and  _311
REMARK  124  A    between atoms: _313  and  _315
REMARK  125  A    between atoms: _315  and  _316
REMARK  126  A    between atoms: _315  and  _318
REMARK  127  A    between atoms: _318  and  _319
REMARK  128  A    between atoms: _319  and  _320
REMARK  129  A    between atoms: _323  and  _325
REMARK  130  A    between atoms: _325  and  _326
REMARK  131  A    between atoms: _325  and  _328
REMARK  132  A    between atoms: _328  and  _329
REMARK  133  A    between atoms: _334  and  _335
REMARK  134  A    between atoms: _337  and  _339
REMARK  135  A    between atoms: _339  and  _340
REMARK  136  A    between atoms: _339  and  _342
REMARK  137  A    between atoms: _342  and  _343
REMARK  138  A    between atoms: _348  and  _350
REMARK  139  A    between atoms: _350  and  _351
REMARK  140  A    between atoms: _350  and  _353
REMARK  141  A    between atoms: _353  and  _354
REMARK  142  A    between atoms: _356  and  _358
REMARK  143  A    between atoms: _358  and  _359
REMARK  144  A    between atoms: _358  and  _361
REMARK  145  A    between atoms: _361  and  _362
REMARK  146  A    between atoms: _365  and  _367
REMARK  147  A    between atoms: _367  and  _368
REMARK  148  A    between atoms: _367  and  _370
REMARK  149  A    between atoms: _370  and  _371
REMARK  150  A    between atoms: _376  and  _378
REMARK  151  A    between atoms: _378  and  _379
REMARK  152  A    between atoms: _378  and  _381
REMARK  153  A    between atoms: _381  and  _382
REMARK  154  A    between atoms: _392  and  _394
REMARK  155  A    between atoms: _394  and  _395
REMARK  156  A    between atoms: _394  and  _397
REMARK  157  A    between atoms: _397  and  _398
REMARK  158  A    between atoms: _404  and  _406
REMARK  159  A    between atoms: _406  and  _407
REMARK  160  A    between atoms: _406  and  _409
REMARK  161  A    between atoms: _409  and  _410
REMARK  162  A    between atoms: _413  and  _415
REMARK  163  A    between atoms: _415  and  _416
REMARK  164  A    between atoms: _415  and  _418
REMARK  165  A    between atoms: _418  and  _419
REMARK  166  A    between atoms: _419  and  _420
REMARK  167  A    between atoms: _420  and  _421
REMARK  168  A    between atoms: _430  and  _432
REMARK  169  A    between atoms: _432  and  _433
REMARK  170  A    between atoms: _432  and  _435
REMARK  171  A    between atoms: _435  and  _436
REMARK  172  A    between atoms: _441  and  _443
REMARK  173  A    between atoms: _443  and  _444
REMARK  174  A    between atoms: _443  and  _446
REMARK  175  A    between atoms: _446  and  _447
REMARK  176  A    between atoms: _447  and  _448
REMARK  177  A    between atoms: _448  and  _449
REMARK  178  A    between atoms: _458  and  _460
REMARK  179  A    between atoms: _460  and  _461
REMARK  180  A    between atoms: _464  and  _466
REMARK  181  A    between atoms: _466  and  _467
REMARK  182  A    between atoms: _469  and  _471
REMARK  183  A    between atoms: _471  and  _472
REMARK  184  A    between atoms: _471  and  _474
REMARK  185  A    between atoms: _474  and  _475
REMARK  186  A    between atoms: _485  and  _487
REMARK  187  A    between atoms: _487  and  _488
REMARK  188  A    between atoms: _487  and  _490
REMARK  189  A    between atoms: _490  and  _491
REMARK  190  A    between atoms: _492  and  _494
REMARK  191  A    between atoms: _494  and  _495
REMARK  192  A    between atoms: _498  and  _500
REMARK  193  A    between atoms: _500  and  _501
REMARK  194  A    between atoms: _500  and  _503
REMARK  195  A    between atoms: _503  and  _504
REMARK  196  A    between atoms: _507  and  _509
REMARK  197  A    between atoms: _509  and  _510
REMARK  198  A    between atoms: _509  and  _512
REMARK  199  A    between atoms: _512  and  _513
REMARK  200  A    between atoms: _518  and  _519
REMARK  201  A    between atoms: _521  and  _523
REMARK  202  A    between atoms: _523  and  _524
REMARK  203  A    between atoms: _523  and  _526
REMARK  204  A    between atoms: _526  and  _527
REMARK  205  A    between atoms: _529  and  _531
REMARK  206  A    between atoms: _531  and  _532
REMARK  207  A    between atoms: _531  and  _534
REMARK  208  A    between atoms: _534  and  _535
REMARK  209  A    between atoms: _541  and  _543
REMARK  210  A    between atoms: _543  and  _544
REMARK  211  A    between atoms: _543  and  _546
REMARK  212  A    between atoms: _546  and  _547
REMARK  213  A    between atoms: _550  and  _552
REMARK  214  A    between atoms: _552  and  _553
REMARK  215  A    between atoms: _552  and  _555
REMARK  216  A    between atoms: _555  and  _556
REMARK  217  A    between atoms: _556  and  _557
REMARK  218  A    between atoms: _559  and  _561
REMARK  219  A    between atoms: _561  and  _562
REMARK  220  A    between atoms: _561  and  _564
REMARK  221  A    between atoms: _564  and  _565
REMARK  222  A    between atoms: _567  and  _569
REMARK  223  A    between atoms: _569  and  _570
REMARK  224  A    between atoms: _569  and  _572
REMARK  225  A    between atoms: _572  and  _573
REMARK  226  A    between atoms: _575  and  _577
REMARK  227  A    between atoms: _577  and  _578
REMARK  228  A    between atoms: _577  and  _580
REMARK  229  A    between atoms: _580  and  _581
REMARK  230  A    between atoms: _586  and  _588
REMARK  231  A    between atoms: _588  and  _589
REMARK  232  A    between atoms: _588  and  _591
REMARK  233  A    between atoms: _591  and  _592
REMARK  234  A    between atoms: _597  and  _599
REMARK  235  A    between atoms: _599  and  _600
REMARK  236  A    between atoms: _599  and  _602
REMARK  237  A    between atoms: _602  and  _603
REMARK  238  A    between atoms: _606  and  _608
REMARK  239  A    between atoms: _608  and  _609
REMARK  240  A    between atoms: _612  and  _614
REMARK  241  A    between atoms: _614  and  _615
REMARK  242  A    between atoms: _614  and  _617
REMARK  243  A    between atoms: _617  and  _618
REMARK  244  A    between atoms: _623  and  _625
REMARK  245  A    between atoms: _625  and  _626
REMARK  246  A    between atoms: _625  and  _628
REMARK  247  A    between atoms: _628  and  _629
REMARK  248  A    between atoms: _632  and  _634
REMARK  249  A    between atoms: _634  and  _635
REMARK  250  A    between atoms: _634  and  _637
REMARK  251  A    between atoms: _637  and  _638
REMARK  252  A    between atoms: _643  and  _644
REMARK  253  A    between atoms: _646  and  _648
REMARK  254  A    between atoms: _648  and  _649
REMARK  255  A    between atoms: _648  and  _651
REMARK  256  A    between atoms: _651  and  _652
REMARK  257  A    between atoms: _657  and  _658
REMARK  258  A    between atoms: _660  and  _662
REMARK  259  A    between atoms: _662  and  _663
REMARK  260  A    between atoms: _662  and  _665
REMARK  261  A    between atoms: _668  and  _670
REMARK  262  A    between atoms: _670  and  _671
REMARK  263  A    between atoms: _670  and  _673
REMARK  264  A    between atoms: _673  and  _674
REMARK  265  A    between atoms: _679  and  _681
REMARK  266  A    between atoms: _681  and  _682
REMARK  267  A    between atoms: _685  and  _687
REMARK  268  A    between atoms: _687  and  _688
REMARK  269  A    between atoms: _687  and  _690
REMARK  270  A    between atoms: _690  and  _691
REMARK  271  A    between atoms: _691  and  _692
REMARK  272  A    between atoms: _692  and  _693
REMARK  273  A    between atoms: _702  and  _704
REMARK  274  A    between atoms: _704  and  _705
REMARK  275  A    between atoms: _704  and  _707
REMARK  276  A    between atoms: _707  and  _708
REMARK  277  A    between atoms: _711  and  _713
REMARK  278  A    between atoms: _713  and  _714
REMARK  279  A    between atoms: _713  and  _716
REMARK  280  A    between atoms: _716  and  _717
REMARK  281  A    between atoms: _720  and  _722
REMARK  282  A    between atoms: _722  and  _723
REMARK  283  A    between atoms: _722  and  _725
REMARK  284  A    between atoms: _725  and  _726
REMARK                            x       y       z     vdW  Elec       q    Type
REMARK                         _______ _______ _______ _____ _____    ______ ____
ROOT
ATOM      1  C   PHE A   1       2.585  29.738  19.118  0.00  0.00    +0.239 C 
ATOM      2  O   PHE A   1       2.951  29.553  20.284  0.00  0.00    -0.274 OA
ATOM      3  N   LEU A   2       3.241  29.192  18.074  0.00  0.00    -0.298 N 
ATOM      4  H   LEU A   2       2.886  29.297  17.102  0.00  0.00    +0.150 HD
ENDROOT
BRANCH   1   5
ATOM      5  CA  PHE A   1       1.312  30.517  18.861  0.00  0.00    +0.149 C 
BRANCH   5   6
ATOM      6  N   PHE A   1       1.485  31.533  17.825  0.00  0.00    -0.238 NA
ATOM      7  H   PHE A   1       0.816  31.541  17.029  0.00  0.00    +0.142 HD
ENDBRANCH   5   6
BRANCH   5   8
ATOM      8  CB  PHE A   1       0.185  29.593  18.407  0.00  0.00    +0.053 C 
BRANCH   8   9
ATOM      9  CG  PHE A   1      -0.061  28.326  19.150  0.00  0.00    -0.020 A 
ATOM     10  CD2 PHE A   1      -0.636  28.330  20.413  0.00  0.00    -0.004 A 
ATOM     11  CE2 PHE A   1      -0.895  27.128  21.074  0.00  0.00    -0.000 A 
ATOM     12  CZ  PHE A   1      -0.579  25.943  20.460  0.00  0.00    -0.000 A 
ATOM     13  CE1 PHE A   1       0.000  25.897  19.192  0.00  0.00    -0.000 A 
ATOM     14  CD1 PHE A   1       0.225  27.109  18.551  0.00  0.00    -0.004 A 
ENDBRANCH   8   9
ENDBRANCH   5   8
ENDBRANCH   1   5
BRANCH   3  15
ATOM     15  CA  LEU A   2       4.469  28.446  18.354  0.00  0.00    +0.137 C 
BRANCH  15  16
ATOM     16  C   LEU A   2       5.552  29.353  18.949  0.00  0.00    +0.227 C 
ATOM     17  O   LEU A   2       6.275  28.895  19.858  0.00  0.00    -0.286 OA
ENDBRANCH  15  16
BRANCH  15  18
ATOM     18  CB  LEU A   2       4.983  27.741  17.095  0.00  0.00    +0.028 C 
BRANCH  18  19
ATOM     19  CG  LEU A   2       3.968  26.756  16.481  0.00  0.00    +0.002 C 
ATOM     20  CD2 LEU A   2       3.657  25.595  17.445  0.00  0.00    +0.000 C 
ATOM     21  CD1 LEU A   2       4.466  26.265  15.140  0.00  0.00    +0.000 C 
ENDBRANCH  18  19
ENDBRANCH  15  18
ENDBRANCH   3  15
TORSDOF 8
REMARK  Name = ../refined-set-2016/1b0h/1b0h_pocket.pdb
REMARK  284 active torsions:
REMARK  status: ('A' for Active; 'I' for Inactive)
REMARK    1  A    between atoms: _1  and  _3
REMARK    2  A    between atoms: _3  and  _4
REMARK    3  A    between atoms: _3  and  _6
REMARK    4  A    between atoms: _6  and  _7
REMARK    5  A    between atoms: _12  and  _14
REMARK    6  A    between atoms: _14  and  _15
REMARK    7  A    between atoms: _17  and  _19
REMARK    8  A    between atoms: _19  and  _20
REMARK    9  A    between atoms: _19  and  _22
REMARK   10  A    between atoms: _22  and  _23
REMARK   11  A    between atoms: _25  and  _27
REMARK   12  A    between atoms: _27  and  _28
REMARK   13  A    between atoms: _27  and  _30
REMARK   14  A    between atoms: _30  and  _31
REMARK   15  A    between atoms: _31  and  _32
REMARK   16  A    between atoms: _37  and  _39
REMARK   17  A    between atoms: _39  and  _40
REMARK   18  A    between atoms: _39  and  _42
REMARK   19  A    between atoms: _42  and  _43
REMARK   20  A    between atoms: _46  and  _48
REMARK   21  A    between atoms: _48  and  _49
REMARK   22  A    between atoms: _48  and  _51
REMARK   23  A    between atoms: _51  and  _52
REMARK   24  A    between atoms: _52  and  _53
REMARK   25  A    between atoms: _56  and  _58
REMARK   26  A    between atoms: _58  and  _59
REMARK   27  A    between atoms: _61  and  _63
REMARK   28  A    between atoms: _63  and  _64
REMARK   29  A    between atoms: _63  and  _66
REMARK   30  A    between atoms: _70  and  _71
REMARK   31  A    between atoms: _76  and  _78
REMARK   32  A    between atoms: _78  and  _79
REMARK   33  A    between atoms: _78  and  _81
REMARK   34  A    between atoms: _81  and  _82
REMARK   35  A    between atoms: _82  and  _83
REMARK   36  A    between atoms: _86  and  _88
REMARK   37  A    between atoms: _88  and  _89
REMARK   38  A    between atoms: _88  and  _91
REMARK   39  A    between atoms: _91  and  _92
REMARK   40  A    between atoms: _94  and  _96
REMARK   41  A    between atoms: _96  and  _97
REMARK   42  A    between atoms: _96  and  _99
REMARK   43  A    between atoms: _99  and  _100
REMARK   44  A    between atoms: _105  and  _107
REMARK   45  A    between atoms: _107  and  _108
REMARK   46  A    between atoms: _107  and  _110
REMARK   47  A    between atoms: _110  and  _111
REMARK   48  A    between atoms: _111  and  _112
REMARK   49  A    between atoms: _112  and  _113
REMARK   50  A    between atoms: _123  and  _124
REMARK   51  A    between atoms: _129  and  _131
REMARK   52  A    between atoms: _131  and  _132
REMARK   53  A    between atoms: _131  and  _134
REMARK   54  A    between atoms: _134  and  _135
REMARK   55  A    between atoms: _140  and  _141
REMARK   56  A    between atoms: _143  and  _145
REMARK   57  A    between atoms: _145  and  _146
REMARK   58  A    between atoms: _145  and  _148
REMARK   59  A    between atoms: _148  and  _149
REMARK   60  A    between atoms: _154  and  _155
REMARK   61  A    between atoms: _157  and  _159
REMARK   62  A    between atoms: _159  and  _160
REMARK   63  A    between atoms: _159  and  _162
REMARK   64  A    between atoms: _165  and  _167
REMARK   65  A    between atoms: _167  and  _168
REMARK   66  A    between atoms: _167  and  _170
REMARK   67  A    between atoms: _170  and  _171
REMARK   68  A    between atoms: _177  and  _178
REMARK   69  A    between atoms: _183  and  _185
REMARK   70  A    between atoms: _185  and  _186
REMARK   71  A    between atoms: _185  and  _188
REMARK   72  A    between atoms: _188  and  _189
REMARK   73  A    between atoms: _191  and  _193
REMARK   74  A    between atoms: _193  and  _194
REMARK   75  A    between atoms: _193  and  _196
REMARK   76  A    between atoms: _196  and  _197
REMARK   77  A    between atoms: _197  and  _198
REMARK   78  A    between atoms: _201  and  _203
REMARK   79  A    between atoms: _203  and  _204
REMARK   80  A    between atoms: _203  and  _206
REMARK   81  A    between atoms: _206  and  _207
REMARK   82  A    between atoms: _212  and  _213
REMARK   83  A    between atoms: _215  and  _217
REMARK   84  A    between atoms: _217  and  _218
REMARK   85  A    between atoms: _217  and  _220
REMARK   86  A    between atoms: _220  and  _221
REMARK   87  A    between atoms: _226  and  _228
REMARK   88  A    between atoms: _228  and  _229
REMARK   89  A    between atoms: _228  and  _231
REMARK   90  A    between atoms: _231  and  _232
REMARK   91  A    between atoms: _237  and  _239
REMARK   92  A    between atoms: _239  and  _240
REMARK   93  A    between atoms: _239  and  _242
REMARK   94  A    between atoms: _242  and  _243
REMARK   95  A    between atoms: _243  and  _244
REMARK   96  A    between atoms: _246  and  _248
REMARK   97  A    between atoms: _248  and  _249
REMARK   98  A    between atoms: _248  and  _251
REMARK   99  A    between atoms: _251  and  _252
REMARK  100  A    between atoms: _257  and  _258
REMARK  101  A    between atoms: _260  and  _262
REMARK  102  A    between atoms: _262  and  _263
REMARK  103  A    between atoms: _262  and  _265
REMARK  104  A    between atoms: _265  and  _266
REMARK  105  A    between atoms: _269  and  _271
REMARK  106  A    between atoms: _271  and  _272
REMARK  107  A    between atoms: _271  and  _274
REMARK  108  A    between atoms: _274  and  _275
REMARK  109  A    between atoms: _275  and  _491
REMARK  110  A    between atoms: _276  and  _278
REMARK  111  A    between atoms: _278  and  _279
REMARK  112  A    between atoms: _278  and  _281
REMARK  113  A    between atoms: _281  and  _282
REMARK  114  A    between atoms: _285  and  _287
REMARK  115  A    between atoms: _287  and  _288
REMARK  116  A    between atoms: _287  and  _290
REMARK  117  A    between atoms: _290  and  _291
REMARK  118  A    between atoms: _296  and  _297
REMARK  119  A    between atoms: _299  and  _301
REMARK  120  A    between atoms: _301  and  _302
REMARK  121  A    between atoms: _301  and  _304
REMARK  122  A    between atoms: _304  and  _305
REMARK  123  A    between atoms: _310  and  _311
REMARK  124  A    between atoms: _313  and  _315
REMARK  125  A    between atoms: _315  and  _316
REMARK  126  A    between atoms: _315  and  _318
REMARK  127  A    between atoms: _318  and  _319
REMARK  128  A    between atoms: _319  and  _320
REMARK  129  A    between atoms: _323  and  _325
REMARK  130  A    between atoms: _325  and  _326
REMARK  131  A    between atoms: _325  and  _328
REMARK  132  A    between atoms: _328  and  _329
REMARK  133  A    between atoms: _334  and  _335
REMARK  134  A    between atoms: _337  and  _339
REMARK  135  A    between atoms: _339  and  _340
REMARK  136  A    between atoms: _339  and  _342
REMARK  137  A    between atoms: _342  and  _343
REMARK  138  A    between atoms: _348  and  _350
REMARK  139  A    between atoms: _350  and  _351
REMARK  140  A    between atoms: _350  and  _353
REMARK  141  A    between atoms: _353  and  _354
REMARK  142  A    between atoms: _356  and  _358
REMARK  143  A    between atoms: _358  and  _359
REMARK  144  A    between atoms: _358  and  _361
REMARK  145  A    between atoms: _361  and  _362
REMARK  146  A    between atoms: _365  and  _367
REMARK  147  A    between atoms: _367  and  _368
REMARK  148  A    between atoms: _367  and  _370
REMARK  149  A    between atoms: _370  and  _371
REMARK  150  A    between atoms: _376  and  _378
REMARK  151  A    between atoms: _378  and  _379
REMARK  152  A    between atoms: _378  and  _381
REMARK  153  A    between atoms: _381  and  _382
REMARK  154  A    between atoms: _392  and  _394
REMARK  155  A    between atoms: _394  and  _395
REMARK  156  A    between atoms: _394  and  _397
REMARK  157  A    between atoms: _397  and  _398
REMARK  158  A    between atoms: _404  and  _406
REMARK  159  A    between atoms: _406  and  _407
REMARK  160  A    between atoms: _406  and  _409
REMARK  161  A    between atoms: _409  and  _410
REMARK  162  A    between atoms: _413  and  _415
REMARK  163  A    between atoms: _415  and  _416
REMARK  164  A    between atoms: _415  and  _418
REMARK  165  A    between atoms: _418  and  _419
REMARK  166  A    between atoms: _419  and  _420
REMARK  167  A    between atoms: _420  and  _421
REMARK  168  A    between atoms: _430  and  _432
REMARK  169  A    between atoms: _432  and  _433
REMARK  170  A    between atoms: _432  and  _435
REMARK  171  A    between atoms: _435  and  _436
REMARK  172  A    between atoms: _441  and  _443
REMARK  173  A    between atoms: _443  and  _444
REMARK  174  A    between atoms: _443  and  _446
REMARK  175  A    between atoms: _446  and  _447
REMARK  176  A    between atoms: _447  and  _448
REMARK  177  A    between atoms: _448  and  _449
REMARK  178  A    between atoms: _458  and  _460
REMARK  179  A    between atoms: _460  and  _461
REMARK  180  A    between atoms: _464  and  _466
REMARK  181  A    between atoms: _466  and  _467
REMARK  182  A    between atoms: _469  and  _471
REMARK  183  A    between atoms: _471  and  _472
REMARK  184  A    between atoms: _471  and  _474
REMARK  185  A    between atoms: _474  and  _475
REMARK  186  A    between atoms: _485  and  _487
REMARK  187  A    between atoms: _487  and  _488
REMARK  188  A    between atoms: _487  and  _490
REMARK  189  A    between atoms: _490  and  _491
REMARK  190  A    between atoms: _492  and  _494
REMARK  191  A    between atoms: _494  and  _495
REMARK  192  A    between atoms: _498  and  _500
REMARK  193  A    between atoms: _500  and  _501
REMARK  194  A    between atoms: _500  and  _503
REMARK  195  A    between atoms: _503  and  _504
REMARK  196  A    between atoms: _507  and  _509
REMARK  197  A    between atoms: _509  and  _510
REMARK  198  A    between atoms: _509  and  _512
REMARK  199  A    between atoms: _512  and  _513
REMARK  200  A    between atoms: _518  and  _519
REMARK  201  A    between atoms: _521  and  _523
REMARK  202  A    between atoms: _523  and  _524
REMARK  203  A    between atoms: _523  and  _526
REMARK  204  A    between atoms: _526  and  _527
REMARK  205  A    between atoms: _529  and  _531
REMARK  206  A    between atoms: _531  and  _532
REMARK  207  A    between atoms: _531  and  _534
REMARK  208  A    between atoms: _534  and  _535
REMARK  209  A    between atoms: _541  and  _543
REMARK  210  A    between atoms: _543  and  _544
REMARK  211  A    between atoms: _543  and  _546
REMARK  212  A    between atoms: _546  and  _547
REMARK  213  A    between atoms: _550  and  _552
REMARK  214  A    between atoms: _552  and  _553
REMARK  215  A    between atoms: _552  and  _555
REMARK  216  A    between atoms: _555  and  _556
REMARK  217  A    between atoms: _556  and  _557
REMARK  218  A    between atoms: _559  and  _561
REMARK  219  A    between atoms: _561  and  _562
REMARK  220  A    between atoms: _561  and  _564
REMARK  221  A    between atoms: _564  and  _565
REMARK  222  A    between atoms: _567  and  _569
REMARK  223  A    between atoms: _569  and  _570
REMARK  224  A    between atoms: _569  and  _572
REMARK  225  A    between atoms: _572  and  _573
REMARK  226  A    between atoms: _575  and  _577
REMARK  227  A    between atoms: _577  and  _578
REMARK  228  A    between atoms: _577  and  _580
REMARK  229  A    between atoms: _580  and  _581
REMARK  230  A    between atoms: _586  and  _588
REMARK  231  A    between atoms: _588  and  _589
REMARK  232  A    between atoms: _588  and  _591
REMARK  233  A    between atoms: _591  and  _592
REMARK  234  A    between atoms: _597  and  _599
REMARK  235  A    between atoms: _599  and  _600
REMARK  236  A    between atoms: _599  and  _602
REMARK  237  A    between atoms: _602  and  _603
REMARK  238  A    between atoms: _606  and  _608
REMARK  239  A    between atoms: _608  and  _609
REMARK  240  A    between atoms: _612  and  _614
REMARK  241  A    between atoms: _614  and  _615
REMARK  242  A    between atoms: _614  and  _617
REMARK  243  A    between atoms: _617  and  _618
REMARK  244  A    between atoms: _623  and  _625
REMARK  245  A    between atoms: _625  and  _626
REMARK  246  A    between atoms: _625  and  _628
REMARK  247  A    between atoms: _628  and  _629
REMARK  248  A    between atoms: _632  and  _634
REMARK  249  A    between atoms: _634  and  _635
REMARK  250  A    between atoms: _634  and  _637
REMARK  251  A    between atoms: _637  and  _638
REMARK  252  A    between atoms: _643  and  _644
REMARK  253  A    between atoms: _646  and  _648
REMARK  254  A    between atoms: _648  and  _649
REMARK  255  A    between atoms: _648  and  _651
REMARK  256  A    between atoms: _651  and  _652
REMARK  257  A    between atoms: _657  and  _658
REMARK  258  A    between atoms: _660  and  _662
REMARK  259  A    between atoms: _662  and  _663
REMARK  260  A    between atoms: _662  and  _665
REMARK  261  A    between atoms: _668  and  _670
REMARK  262  A    between atoms: _670  and  _671
REMARK  263  A    between atoms: _670  and  _673
REMARK  264  A    between atoms: _673  and  _674
REMARK  265  A    between atoms: _679  and  _681
REMARK  266  A    between atoms: _681  and  _682
REMARK  267  A    between atoms: _685  and  _687
REMARK  268  A    between atoms: _687  and  _688
REMARK  269  A    between atoms: _687  and  _690
REMARK  270  A    between atoms: _690  and  _691
REMARK  271  A    between atoms: _691  and  _692
REMARK  272  A    between atoms: _692  and  _693
REMARK  273  A    between atoms: _702  and  _704
REMARK  274  A    between atoms: _704  and  _705
REMARK  275  A    between atoms: _704  and  _707
REMARK  276  A    between atoms: _707  and  _708
REMARK  277  A    between atoms: _711  and  _713
REMARK  278  A    between atoms: _713  and  _714
REMARK  279  A    between atoms: _713  and  _716
REMARK  280  A    between atoms: _716  and  _717
REMARK  281  A    between atoms: _720  and  _722
REMARK  282  A    between atoms: _722  and  _723
REMARK  283  A    between atoms: _722  and  _725
REMARK  284  A    between atoms: _725  and  _726
REMARK                            x       y       z     vdW  Elec       q    Type
REMARK                         _______ _______ _______ _____ _____    ______ ____
ROOT
ATOM      1  CA  ARG A   1       5.353  28.751  23.551  0.00  0.00    +0.145 C 
ENDROOT
BRANCH   1   2
ATOM      2  C   ARG A   1       6.866  28.696  23.727  0.00  0.00    +0.238 C 
ATOM      3  O   ARG A   1       7.339  28.418  24.845  0.00  0.00    -0.274 OA
ATOM      4  N   HIS A   2       7.643  28.968  22.675  0.00  0.00    -0.298 N 
ATOM      5  H   HIS A   2       7.224  29.174  21.746  0.00  0.00    +0.150 HD
BRANCH   4   6
ATOM      6  CA  HIS A   2       9.100  28.971  22.856  0.00  0.00    +0.143 C 
BRANCH   6   7
ATOM      7  C   HIS A   2       9.541  30.092  23.793  0.00  0.00    +0.227 C 
ATOM      8  O   HIS A   2      10.474  29.882  24.585  0.00  0.00    -0.286 OA
ENDBRANCH   6   7
BRANCH   6   9
ATOM      9  CB  HIS A   2       9.859  29.176  21.539  0.00  0.00    +0.075 C 
BRANCH   9  10
ATOM     10  CG  HIS A   2       9.911  27.921  20.706  0.00  0.00    +0.082 A 
ATOM     11  ND1 HIS A   2      10.591  26.785  21.061  0.00  0.00    -0.227 NA
ATOM     12  CE1 HIS A   2      10.443  25.873  20.113  0.00  0.00    +0.199 A 
ATOM     13  NE2 HIS A   2       9.685  26.391  19.164  0.00  0.00    -0.221 NA
ATOM     14  CD2 HIS A   2       9.322  27.688  19.499  0.00  0.00    +0.115 A 
ENDBRANCH   9  10
ENDBRANCH   6   9
ENDBRANCH   4   6
ENDBRANCH   1   2
BRANCH   1  15
ATOM     15  N   ARG A   1       4.950  29.903  22.724  0.00  0.00    -0.238 NA
ATOM     16  H   ARG A   1       4.462  29.744  21.819  0.00  0.00    +0.142 HD
ENDBRANCH   1  15
BRANCH   1  17
ATOM     17  CB  ARG A   1       4.824  27.492  22.870  0.00  0.00    +0.030 C 
BRANCH  17  18
ATOM     18  CG  ARG A   1       3.300  27.404  23.033  0.00  0.00    +0.045 C 
BRANCH  18  19
ATOM     19  CD  ARG A   1       2.755  26.337  22.084  0.00  0.00    +0.174 C 
BRANCH  19  20
ATOM     20  NE  ARG A   1       3.157  25.004  22.556  0.00  0.00    -0.265 N 
ATOM     21  HE  ARG A   1       3.565  24.899  23.507  0.00  0.00    +0.259 HD
ATOM     22  CZ  ARG A   1       3.007  23.927  21.783  0.00  0.00    +0.342 C 
ATOM     23  NH2 ARG A   1       3.393  22.716  22.226  0.00  0.00    -0.292 N 
ATOM     24 HH21 ARG A   1       3.810  22.618  23.174  0.00  0.00    +0.255 HD
ATOM     25 HH22 ARG A   1       3.274  21.879  21.621  0.00  0.00    +0.255 HD
ATOM     26  NH1 ARG A   1       2.475  24.079  20.571  0.00  0.00    -0.292 N 
ATOM     27 HH11 ARG A   1       2.186  25.023  20.245  0.00  0.00    +0.255 HD
ATOM     28 HH12 ARG A   1       2.349  23.253  19.951  0.00  0.00    +0.255 HD
ENDBRANCH  19  20
ENDBRANCH  18  19
ENDBRANCH  17  18
ENDBRANCH   1  17
TORSDOF 10
REMARK  Name = ../refined-set-2016/1b0h/1b0h_pocket.pdb
REMARK  284 active torsions:
REMARK  status: ('A' for Active; 'I' for Inactive)
REMARK    1  A    between atoms: _1  and  _3
REMARK    2  A    between atoms: _3  and  _4
REMARK    3  A    between atoms: _3  and  _6
REMARK    4  A    between atoms: _6  and  _7
REMARK    5  A    between atoms: _12  and  _14
REMARK    6  A    between atoms: _14  and  _15
REMARK    7  A    between atoms: _17  and  _19
REMARK    8  A    between atoms: _19  and  _20
REMARK    9  A    between atoms: _19  and  _22
REMARK   10  A    between atoms: _22  and  _23
REMARK   11  A    between atoms: _25  and  _27
REMARK   12  A    between atoms: _27  and  _28
REMARK   13  A    between atoms: _27  and  _30
REMARK   14  A    between atoms: _30  and  _31
REMARK   15  A    between atoms: _31  and  _32
REMARK   16  A    between atoms: _37  and  _39
REMARK   17  A    between atoms: _39  and  _40
REMARK   18  A    between atoms: _39  and  _42
REMARK   19  A    between atoms: _42  and  _43
REMARK   20  A    between atoms: _46  and  _48
REMARK   21  A    between atoms: _48  and  _49
REMARK   22  A    between atoms: _48  and  _51
REMARK   23  A    between atoms: _51  and  _52
REMARK   24  A    between atoms: _52  and  _53
REMARK   25  A    between atoms: _56  and  _58
REMARK   26  A    between atoms: _58  and  _59
REMARK   27  A    between atoms: _61  and  _63
REMARK   28  A    between atoms: _63  and  _64
REMARK   29  A    between atoms: _63  and  _66
REMARK   30  A    between atoms: _70  and  _71
REMARK   31  A    between atoms: _76  and  _78
REMARK   32  A    between atoms: _78  and  _79
REMARK   33  A    between atoms: _78  and  _81
REMARK   34  A    between atoms: _81  and  _82
REMARK   35  A    between atoms: _82  and  _83
REMARK   36  A    between atoms: _86  and  _88
REMARK   37  A    between atoms: _88  and  _89
REMARK   38  A    between atoms: _88  and  _91
REMARK   39  A    between atoms: _91  and  _92
REMARK   40  A    between atoms: _94  and  _96
REMARK   41  A    between atoms: _96  and  _97
REMARK   42  A    between atoms: _96  and  _99
REMARK   43  A    between atoms: _99  and  _100
REMARK   44  A    between atoms: _105  and  _107
REMARK   45  A    between atoms: _107  and  _108
REMARK   46  A    between atoms: _107  and  _110
REMARK   47  A    between atoms: _110  and  _111
REMARK   48  A    between atoms: _111  and  _112
REMARK   49  A    between atoms: _112  and  _113
REMARK   50  A    between atoms: _123  and  _124
REMARK   51  A    between atoms: _129  and  _131
REMARK   52  A    between atoms: _131  and  _132
REMARK   53  A    between atoms: _131  and  _134
REMARK   54  A    between atoms: _134  and  _135
REMARK   55  A    between atoms: _140  and  _141
REMARK   56  A    between atoms: _143  and  _145
REMARK   57  A    between atoms: _145  and  _146
REMARK   58  A    between atoms: _145  and  _148
REMARK   59  A    between atoms: _148  and  _149
REMARK   60  A    between atoms: _154  and  _155
REMARK   61  A    between atoms: _157  and  _159
REMARK   62  A    between atoms: _159  and  _160
REMARK   63  A    between atoms: _159  and  _162
REMARK   64  A    between atoms: _165  and  _167
REMARK   65  A    between atoms: _167  and  _168
REMARK   66  A    between atoms: _167  and  _170
REMARK   67  A    between atoms: _170  and  _171
REMARK   68  A    between atoms: _177  and  _178
REMARK   69  A    between atoms: _183  and  _185
REMARK   70  A    between atoms: _185  and  _186
REMARK   71  A    between atoms: _185  and  _188
REMARK   72  A    between atoms: _188  and  _189
REMARK   73  A    between atoms: _191  and  _193
REMARK   74  A    between atoms: _193  and  _194
REMARK   75  A    between atoms: _193  and  _196
REMARK   76  A    between atoms: _196  and  _197
REMARK   77  A    between atoms: _197  and  _198
REMARK   78  A    between atoms: _201  and  _203
REMARK   79  A    between atoms: _203  and  _204
REMARK   80  A    between atoms: _203  and  _206
REMARK   81  A    between atoms: _206  and  _207
REMARK   82  A    between atoms: _212  and  _213
REMARK   83  A    between atoms: _215  and  _217
REMARK   84  A    between atoms: _217  and  _218
REMARK   85  A    between atoms: _217  and  _220
REMARK   86  A    between atoms: _220  and  _221
REMARK   87  A    between atoms: _226  and  _228
REMARK   88  A    between atoms: _228  and  _229
REMARK   89  A    between atoms: _228  and  _231
REMARK   90  A    between atoms: _231  and  _232
REMARK   91  A    between atoms: _237  and  _239
REMARK   92  A    between atoms: _239  and  _240
REMARK   93  A    between atoms: _239  and  _242
REMARK   94  A    between atoms: _242  and  _243
REMARK   95  A    between atoms: _243  and  _244
REMARK   96  A    between atoms: _246  and  _248
REMARK   97  A    between atoms: _248  and  _249
REMARK   98  A    between atoms: _248  and  _251
REMARK   99  A    between atoms: _251  and  _252
REMARK  100  A    between atoms: _257  and  _258
REMARK  101  A    between atoms: _260  and  _262
REMARK  102  A    between atoms: _262  and  _263
REMARK  103  A    between atoms: _262  and  _265
REMARK  104  A    between atoms: _265  and  _266
REMARK  105  A    between atoms: _269  and  _271
REMARK  106  A    between atoms: _271  and  _272
REMARK  107  A    between atoms: _271  and  _274
REMARK  108  A    between atoms: _274  and  _275
REMARK  109  A    between atoms: _275  and  _491
REMARK  110  A    between atoms: _276  and  _278
REMARK  111  A    between atoms: _278  and  _279
REMARK  112  A    between atoms: _278  and  _281
REMARK  113  A    between atoms: _281  and  _282
REMARK  114  A    between atoms: _285  and  _287
REMARK  115  A    between atoms: _287  and  _288
REMARK  116  A    between atoms: _287  and  _290
REMARK  117  A    between atoms: _290  and  _291
REMARK  118  A    between atoms: _296  and  _297
REMARK  119  A    between atoms: _299  and  _301
REMARK  120  A    between atoms: _301  and  _302
REMARK  121  A    between atoms: _301  and  _304
REMARK  122  A    between atoms: _304  and  _305
REMARK  123  A    between atoms: _310  and  _311
REMARK  124  A    between atoms: _313  and  _315
REMARK  125  A    between atoms: _315  and  _316
REMARK  126  A    between atoms: _315  and  _318
REMARK  127  A    between atoms: _318  and  _319
REMARK  128  A    between atoms: _319  and  _320
REMARK  129  A    between atoms: _323  and  _325
REMARK  130  A    between atoms: _325  and  _326
REMARK  131  A    between atoms: _325  and  _328
REMARK  132  A    between atoms: _328  and  _329
REMARK  133  A    between atoms: _334  and  _335
REMARK  134  A    between atoms: _337  and  _339
REMARK  135  A    between atoms: _339  and  _340
REMARK  136  A    between atoms: _339  and  _342
REMARK  137  A    between atoms: _342  and  _343
REMARK  138  A    between atoms: _348  and  _350
REMARK  139  A    between atoms: _350  and  _351
REMARK  140  A    between atoms: _350  and  _353
REMARK  141  A    between atoms: _353  and  _354
REMARK  142  A    between atoms: _356  and  _358
REMARK  143  A    between atoms: _358  and  _359
REMARK  144  A    between atoms: _358  and  _361
REMARK  145  A    between atoms: _361  and  _362
REMARK  146  A    between atoms: _365  and  _367
REMARK  147  A    between atoms: _367  and  _368
REMARK  148  A    between atoms: _367  and  _370
REMARK  149  A    between atoms: _370  and  _371
REMARK  150  A    between atoms: _376  and  _378
REMARK  151  A    between atoms: _378  and  _379
REMARK  152  A    between atoms: _378  and  _381
REMARK  153  A    between atoms: _381  and  _382
REMARK  154  A    between atoms: _392  and  _394
REMARK  155  A    between atoms: _394  and  _395
REMARK  156  A    between atoms: _394  and  _397
REMARK  157  A    between atoms: _397  and  _398
REMARK  158  A    between atoms: _404  and  _406
REMARK  159  A    between atoms: _406  and  _407
REMARK  160  A    between atoms: _406  and  _409
REMARK  161  A    between atoms: _409  and  _410
REMARK  162  A    between atoms: _413  and  _415
REMARK  163  A    between atoms: _415  and  _416
REMARK  164  A    between atoms: _415  and  _418
REMARK  165  A    between atoms: _418  and  _419
REMARK  166  A    between atoms: _419  and  _420
REMARK  167  A    between atoms: _420  and  _421
REMARK  168  A    between atoms: _430  and  _432
REMARK  169  A    between atoms: _432  and  _433
REMARK  170  A    between atoms: _432  and  _435
REMARK  171  A    between atoms: _435  and  _436
REMARK  172  A    between atoms: _441  and  _443
REMARK  173  A    between atoms: _443  and  _444
REMARK  174  A    between atoms: _443  and  _446
REMARK  175  A    between atoms: _446  and  _447
REMARK  176  A    between atoms: _447  and  _448
REMARK  177  A    between atoms: _448  and  _449
REMARK  178  A    between atoms: _458  and  _460
REMARK  179  A    between atoms: _460  and  _461
REMARK  180  A    between atoms: _464  and  _466
REMARK  181  A    between atoms: _466  and  _467
REMARK  182  A    between atoms: _469  and  _471
REMARK  183  A    between atoms: _471  and  _472
REMARK  184  A    between atoms: _471  and  _474
REMARK  185  A    between atoms: _474  and  _475
REMARK  186  A    between atoms: _485  and  _487
REMARK  187  A    between atoms: _487  and  _488
REMARK  188  A    between atoms: _487  and  _490
REMARK  189  A    between atoms: _490  and  _491
REMARK  190  A    between atoms: _492  and  _494
REMARK  191  A    between atoms: _494  and  _495
REMARK  192  A    between atoms: _498  and  _500
REMARK  193  A    between atoms: _500  and  _501
REMARK  194  A    between atoms: _500  and  _503
REMARK  195  A    between atoms: _503  and  _504
REMARK  196  A    between atoms: _507  and  _509
REMARK  197  A    between atoms: _509  and  _510
REMARK  198  A    between atoms: _509  and  _512
REMARK  199  A    between atoms: _512  and  _513
REMARK  200  A    between atoms: _518  and  _519
REMARK  201  A    between atoms: _521  and  _523
REMARK  202  A    between atoms: _523  and  _524
REMARK  203  A    between atoms: _523  and  _526
REMARK  204  A    between atoms: _526  and  _527
REMARK  205  A    between atoms: _529  and  _531
REMARK  206  A    between atoms: _531  and  _532
REMARK  207  A    between atoms: _531  and  _534
REMARK  208  A    between atoms: _534  and  _535
REMARK  209  A    between atoms: _541  and  _543
REMARK  210  A    between atoms: _543  and  _544
REMARK  211  A    between atoms: _543  and  _546
REMARK  212  A    between atoms: _546  and  _547
REMARK  213  A    between atoms: _550  and  _552
REMARK  214  A    between atoms: _552  and  _553
REMARK  215  A    between atoms: _552  and  _555
REMARK  216  A    between atoms: _555  and  _556
REMARK  217  A    between atoms: _556  and  _557
REMARK  218  A    between atoms: _559  and  _561
REMARK  219  A    between atoms: _561  and  _562
REMARK  220  A    between atoms: _561  and  _564
REMARK  221  A    between atoms: _564  and  _565
REMARK  222  A    between atoms: _567  and  _569
REMARK  223  A    between atoms: _569  and  _570
REMARK  224  A    between atoms: _569  and  _572
REMARK  225  A    between atoms: _572  and  _573
REMARK  226  A    between atoms: _575  and  _577
REMARK  227  A    between atoms: _577  and  _578
REMARK  228  A    between atoms: _577  and  _580
REMARK  229  A    between atoms: _580  and  _581
REMARK  230  A    between atoms: _586  and  _588
REMARK  231  A    between atoms: _588  and  _589
REMARK  232  A    between atoms: _588  and  _591
REMARK  233  A    between atoms: _591  and  _592
REMARK  234  A    between atoms: _597  and  _599
REMARK  235  A    between atoms: _599  and  _600
REMARK  236  A    between atoms: _599  and  _602
REMARK  237  A    between atoms: _602  and  _603
REMARK  238  A    between atoms: _606  and  _608
REMARK  239  A    between atoms: _608  and  _609
REMARK  240  A    between atoms: _612  and  _614
REMARK  241  A    between atoms: _614  and  _615
REMARK  242  A    between atoms: _614  and  _617
REMARK  243  A    between atoms: _617  and  _618
REMARK  244  A    between atoms: _623  and  _625
REMARK  245  A    between atoms: _625  and  _626
REMARK  246  A    between atoms: _625  and  _628
REMARK  247  A    between atoms: _628  and  _629
REMARK  248  A    between atoms: _632  and  _634
REMARK  249  A    between atoms: _634  and  _635
REMARK  250  A    between atoms: _634  and  _637
REMARK  251  A    between atoms: _637  and  _638
REMARK  252  A    between atoms: _643  and  _644
REMARK  253  A    between atoms: _646  and  _648
REMARK  254  A    between atoms: _648  and  _649
REMARK  255  A    between atoms: _648  and  _651
REMARK  256  A    between atoms: _651  and  _652
REMARK  257  A    between atoms: _657  and  _658
REMARK  258  A    between atoms: _660  and  _662
REMARK  259  A    between atoms: _662  and  _663
REMARK  260  A    between atoms: _662  and  _665
REMARK  261  A    between atoms: _668  and  _670
REMARK  262  A    between atoms: _670  and  _671
REMARK  263  A    between atoms: _670  and  _673
REMARK  264  A    between atoms: _673  and  _674
REMARK  265  A    between atoms: _679  and  _681
REMARK  266  A    between atoms: _681  and  _682
REMARK  267  A    between atoms: _685  and  _687
REMARK  268  A    between atoms: _687  and  _688
REMARK  269  A    between atoms: _687  and  _690
REMARK  270  A    between atoms: _690  and  _691
REMARK  271  A    between atoms: _691  and  _692
REMARK  272  A    between atoms: _692  and  _693
REMARK  273  A    between atoms: _702  and  _704
REMARK  274  A    between atoms: _704  and  _705
REMARK  275  A    between atoms: _704  and  _707
REMARK  276  A    between atoms: _707  and  _708
REMARK  277  A    between atoms: _711  and  _713
REMARK  278  A    between atoms: _713  and  _714
REMARK  279  A    between atoms: _713  and  _716
REMARK  280  A    between atoms: _716  and  _717
REMARK  281  A    between atoms: _720  and  _722
REMARK  282  A    between atoms: _722  and  _723
REMARK  283  A    between atoms: _722  and  _725
REMARK  284  A    between atoms: _725  and  _726
REMARK                            x       y       z     vdW  Elec       q    Type
REMARK                         _______ _______ _______ _____ _____    ______ ____
ROOT
ATOM      1  C   SER A   1       9.929  11.807  19.511  0.00  0.00    +0.241 C 
ATOM      2  N   PHE A   2       9.275  11.187  20.493  0.00  0.00    -0.298 N 
ATOM      3  H   PHE A   2       9.281  10.149  20.562  0.00  0.00    +0.150 HD
ATOM      4  O   SER A   1       9.857  13.027  19.338  0.00  0.00    -0.274 OA
ENDROOT
BRANCH   1   5
ATOM      5  CA  SER A   1      10.829  10.942  18.620  0.00  0.00    +0.174 C 
BRANCH   5   6
ATOM      6  N   SER A   1      11.385   9.836  19.416  0.00  0.00    -0.236 NA
ATOM      7  H   SER A   1      11.203   8.854  19.127  0.00  0.00    +0.142 HD
ENDBRANCH   5   6
BRANCH   5   8
ATOM      8  CB  SER A   1      10.064  10.377  17.405  0.00  0.00    +0.163 C 
BRANCH   8   9
ATOM      9  OG  SER A   1       9.747  11.477  16.560  0.00  0.00    -0.380 OA
ATOM     10  H   SER A   1      10.583  11.921  16.270  0.00  0.00    +0.211 HD
ENDBRANCH   8   9
ENDBRANCH   5   8
ENDBRANCH   1   5
BRANCH   2  11
ATOM     11  CA  PHE A   2       8.541  12.004  21.483  0.00  0.00    +0.141 C 
BRANCH  11  12
ATOM     12  C   PHE A   2       9.444  12.378  22.650  0.00  0.00    +0.227 C 
ATOM     13  O   PHE A   2       9.543  13.554  23.040  0.00  0.00    -0.286 OA
ENDBRANCH  11  12
BRANCH  11  14
ATOM     14  CB  PHE A   2       7.398  11.152  22.104  0.00  0.00    +0.054 C 
BRANCH  14  15
ATOM     15  CG  PHE A   2       6.114  11.300  21.300  0.00  0.00    -0.020 A 
ATOM     16  CD2 PHE A   2       5.081  12.072  21.809  0.00  0.00    -0.004 A 
ATOM     17  CE2 PHE A   2       3.920  12.256  21.070  0.00  0.00    -0.000 A 
ATOM     18  CZ  PHE A   2       3.797  11.635  19.826  0.00  0.00    -0.000 A 
ATOM     19  CE1 PHE A   2       4.802  10.836  19.343  0.00  0.00    -0.000 A 
ATOM     20  CD1 PHE A   2       5.991  10.662  20.086  0.00  0.00    -0.004 A 
ENDBRANCH  14  15
ENDBRANCH  11  14
ENDBRANCH   2  11
TORSDOF 8
REMARK  Name = ../refined-set-2016/1b0h/1b0h_pocket.pdb
REMARK  284 active torsions:
REMARK  status: ('A' for Active; 'I' for Inactive)
REMARK    1  A    between atoms: _1  and  _3
REMARK    2  A    between atoms: _3  and  _4
REMARK    3  A    between atoms: _3  and  _6
REMARK    4  A    between atoms: _6  and  _7
REMARK    5  A    between atoms: _12  and  _14
REMARK    6  A    between atoms: _14  and  _15
REMARK    7  A    between atoms: _17  and  _19
REMARK    8  A    between atoms: _19  and  _20
REMARK    9  A    between atoms: _19  and  _22
REMARK   10  A    between atoms: _22  and  _23
REMARK   11  A    between atoms: _25  and  _27
REMARK   12  A    between atoms: _27  and  _28
REMARK   13  A    between atoms: _27  and  _30
REMARK   14  A    between atoms: _30  and  _31
REMARK   15  A    between atoms: _31  and  _32
REMARK   16  A    between atoms: _37  and  _39
REMARK   17  A    between atoms: _39  and  _40
REMARK   18  A    between atoms: _39  and  _42
REMARK   19  A    between atoms: _42  and  _43
REMARK   20  A    between atoms: _46  and  _48
REMARK   21  A    between atoms: _48  and  _49
REMARK   22  A    between atoms: _48  and  _51
REMARK   23  A    between atoms: _51  and  _52
REMARK   24  A    between atoms: _52  and  _53
REMARK   25  A    between atoms: _56  and  _58
REMARK   26  A    between atoms: _58  and  _59
REMARK   27  A    between atoms: _61  and  _63
REMARK   28  A    between atoms: _63  and  _64
REMARK   29  A    between atoms: _63  and  _66
REMARK   30  A    between atoms: _70  and  _71
REMARK   31  A    between atoms: _76  and  _78
REMARK   32  A    between atoms: _78  and  _79
REMARK   33  A    between atoms: _78  and  _81
REMARK   34  A    between atoms: _81  and  _82
REMARK   35  A    between atoms: _82  and  _83
REMARK   36  A    between atoms: _86  and  _88
REMARK   37  A    between atoms: _88  and  _89
REMARK   38  A    between atoms: _88  and  _91
REMARK   39  A    between atoms: _91  and  _92
REMARK   40  A    between atoms: _94  and  _96
REMARK   41  A    between atoms: _96  and  _97
REMARK   42  A    between atoms: _96  and  _99
REMARK   43  A    between atoms: _99  and  _100
REMARK   44  A    between atoms: _105  and  _107
REMARK   45  A    between atoms: _107  and  _108
REMARK   46  A    between atoms: _107  and  _110
REMARK   47  A    between atoms: _110  and  _111
REMARK   48  A    between atoms: _111  and  _112
REMARK   49  A    between atoms: _112  and  _113
REMARK   50  A    between atoms: _123  and  _124
REMARK   51  A    between atoms: _129  and  _131
REMARK   52  A    between atoms: _131  and  _132
REMARK   53  A    between atoms: _131  and  _134
REMARK   54  A    between atoms: _134  and  _135
REMARK   55  A    between atoms: _140  and  _141
REMARK   56  A    between atoms: _143  and  _145
REMARK   57  A    between atoms: _145  and  _146
REMARK   58  A    between atoms: _145  and  _148
REMARK   59  A    between atoms: _148  and  _149
REMARK   60  A    between atoms: _154  and  _155
REMARK   61  A    between atoms: _157  and  _159
REMARK   62  A    between atoms: _159  and  _160
REMARK   63  A    between atoms: _159  and  _162
REMARK   64  A    between atoms: _165  and  _167
REMARK   65  A    between atoms: _167  and  _168
REMARK   66  A    between atoms: _167  and  _170
REMARK   67  A    between atoms: _170  and  _171
REMARK   68  A    between atoms: _177  and  _178
REMARK   69  A    between atoms: _183  and  _185
REMARK   70  A    between atoms: _185  and  _186
REMARK   71  A    between atoms: _185  and  _188
REMARK   72  A    between atoms: _188  and  _189
REMARK   73  A    between atoms: _191  and  _193
REMARK   74  A    between atoms: _193  and  _194
REMARK   75  A    between atoms: _193  and  _196
REMARK   76  A    between atoms: _196  and  _197
REMARK   77  A    between atoms: _197  and  _198
REMARK   78  A    between atoms: _201  and  _203
REMARK   79  A    between atoms: _203  and  _204
REMARK   80  A    between atoms: _203  and  _206
REMARK   81  A    between atoms: _206  and  _207
REMARK   82  A    between atoms: _212  and  _213
REMARK   83  A    between atoms: _215  and  _217
REMARK   84  A    between atoms: _217  and  _218
REMARK   85  A    between atoms: _217  and  _220
REMARK   86  A    between atoms: _220  and  _221
REMARK   87  A    between atoms: _226  and  _228
REMARK   88  A    between atoms: _228  and  _229
REMARK   89  A    between atoms: _228  and  _231
REMARK   90  A    between atoms: _231  and  _232
REMARK   91  A    between atoms: _237  and  _239
REMARK   92  A    between atoms: _239  and  _240
REMARK   93  A    between atoms: _239  and  _242
REMARK   94  A    between atoms: _242  and  _243
REMARK   95  A    between atoms: _243  and  _244
REMARK   96  A    between atoms: _246  and  _248
REMARK   97  A    between atoms: _248  and  _249
REMARK   98  A    between atoms: _248  and  _251
REMARK   99  A    between atoms: _251  and  _252
REMARK  100  A    between atoms: _257  and  _258
REMARK  101  A    between atoms: _260  and  _262
REMARK  102  A    between atoms: _262  and  _263
REMARK  103  A    between atoms: _262  and  _265
REMARK  104  A    between atoms: _265  and  _266
REMARK  105  A    between atoms: _269  and  _271
REMARK  106  A    between atoms: _271  and  _272
REMARK  107  A    between atoms: _271  and  _274
REMARK  108  A    between atoms: _274  and  _275
REMARK  109  A    between atoms: _275  and  _491
REMARK  110  A    between atoms: _276  and  _278
REMARK  111  A    between atoms: _278  and  _279
REMARK  112  A    between atoms: _278  and  _281
REMARK  113  A    between atoms: _281  and  _282
REMARK  114  A    between atoms: _285  and  _287
REMARK  115  A    between atoms: _287  and  _288
REMARK  116  A    between atoms: _287  and  _290
REMARK  117  A    between atoms: _290  and  _291
REMARK  118  A    between atoms: _296  and  _297
REMARK  119  A    between atoms: _299  and  _301
REMARK  120  A    between atoms: _301  and  _302
REMARK  121  A    between atoms: _301  and  _304
REMARK  122  A    between atoms: _304  and  _305
REMARK  123  A    between atoms: _310  and  _311
REMARK  124  A    between atoms: _313  and  _315
REMARK  125  A    between atoms: _315  and  _316
REMARK  126  A    between atoms: _315  and  _318
REMARK  127  A    between atoms: _318  and  _319
REMARK  128  A    between atoms: _319  and  _320
REMARK  129  A    between atoms: _323  and  _325
REMARK  130  A    between atoms: _325  and  _326
REMARK  131  A    between atoms: _325  and  _328
REMARK  132  A    between atoms: _328  and  _329
REMARK  133  A    between atoms: _334  and  _335
REMARK  134  A    between atoms: _337  and  _339
REMARK  135  A    between atoms: _339  and  _340
REMARK  136  A    between atoms: _339  and  _342
REMARK  137  A    between atoms: _342  and  _343
REMARK  138  A    between atoms: _348  and  _350
REMARK  139  A    between atoms: _350  and  _351
REMARK  140  A    between atoms: _350  and  _353
REMARK  141  A    between atoms: _353  and  _354
REMARK  142  A    between atoms: _356  and  _358
REMARK  143  A    between atoms: _358  and  _359
REMARK  144  A    between atoms: _358  and  _361
REMARK  145  A    between atoms: _361  and  _362
REMARK  146  A    between atoms: _365  and  _367
REMARK  147  A    between atoms: _367  and  _368
REMARK  148  A    between atoms: _367  and  _370
REMARK  149  A    between atoms: _370  and  _371
REMARK  150  A    between atoms: _376  and  _378
REMARK  151  A    between atoms: _378  and  _379
REMARK  152  A    between atoms: _378  and  _381
REMARK  153  A    between atoms: _381  and  _382
REMARK  154  A    between atoms: _392  and  _394
REMARK  155  A    between atoms: _394  and  _395
REMARK  156  A    between atoms: _394  and  _397
REMARK  157  A    between atoms: _397  and  _398
REMARK  158  A    between atoms: _404  and  _406
REMARK  159  A    between atoms: _406  and  _407
REMARK  160  A    between atoms: _406  and  _409
REMARK  161  A    between atoms: _409  and  _410
REMARK  162  A    between atoms: _413  and  _415
REMARK  163  A    between atoms: _415  and  _416
REMARK  164  A    between atoms: _415  and  _418
REMARK  165  A    between atoms: _418  and  _419
REMARK  166  A    between atoms: _419  and  _420
REMARK  167  A    between atoms: _420  and  _421
REMARK  168  A    between atoms: _430  and  _432
REMARK  169  A    between atoms: _432  and  _433
REMARK  170  A    between atoms: _432  and  _435
REMARK  171  A    between atoms: _435  and  _436
REMARK  172  A    between atoms: _441  and  _443
REMARK  173  A    between atoms: _443  and  _444
REMARK  174  A    between atoms: _443  and  _446
REMARK  175  A    between atoms: _446  and  _447
REMARK  176  A    between atoms: _447  and  _448
REMARK  177  A    between atoms: _448  and  _449
REMARK  178  A    between atoms: _458  and  _460
REMARK  179  A    between atoms: _460  and  _461
REMARK  180  A    between atoms: _464  and  _466
REMARK  181  A    between atoms: _466  and  _467
REMARK  182  A    between atoms: _469  and  _471
REMARK  183  A    between atoms: _471  and  _472
REMARK  184  A    between atoms: _471  and  _474
REMARK  185  A    between atoms: _474  and  _475
REMARK  186  A    between atoms: _485  and  _487
REMARK  187  A    between atoms: _487  and  _488
REMARK  188  A    between atoms: _487  and  _490
REMARK  189  A    between atoms: _490  and  _491
REMARK  190  A    between atoms: _492  and  _494
REMARK  191  A    between atoms: _494  and  _495
REMARK  192  A    between atoms: _498  and  _500
REMARK  193  A    between atoms: _500  and  _501
REMARK  194  A    between atoms: _500  and  _503
REMARK  195  A    between atoms: _503  and  _504
REMARK  196  A    between atoms: _507  and  _509
REMARK  197  A    between atoms: _509  and  _510
REMARK  198  A    between atoms: _509  and  _512
REMARK  199  A    between atoms: _512  and  _513
REMARK  200  A    between atoms: _518  and  _519
REMARK  201  A    between atoms: _521  and  _523
REMARK  202  A    between atoms: _523  and  _524
REMARK  203  A    between atoms: _523  and  _526
REMARK  204  A    between atoms: _526  and  _527
REMARK  205  A    between atoms: _529  and  _531
REMARK  206  A    between atoms: _531  and  _532
REMARK  207  A    between atoms: _531  and  _534
REMARK  208  A    between atoms: _534  and  _535
REMARK  209  A    between atoms: _541  and  _543
REMARK  210  A    between atoms: _543  and  _544
REMARK  211  A    between atoms: _543  and  _546
REMARK  212  A    between atoms: _546  and  _547
REMARK  213  A    between atoms: _550  and  _552
REMARK  214  A    between atoms: _552  and  _553
REMARK  215  A    between atoms: _552  and  _555
REMARK  216  A    between atoms: _555  and  _556
REMARK  217  A    between atoms: _556  and  _557
REMARK  218  A    between atoms: _559  and  _561
REMARK  219  A    between atoms: _561  and  _562
REMARK  220  A    between atoms: _561  and  _564
REMARK  221  A    between atoms: _564  and  _565
REMARK  222  A    between atoms: _567  and  _569
REMARK  223  A    between atoms: _569  and  _570
REMARK  224  A    between atoms: _569  and  _572
REMARK  225  A    between atoms: _572  and  _573
REMARK  226  A    between atoms: _575  and  _577
REMARK  227  A    between atoms: _577  and  _578
REMARK  228  A    between atoms: _577  and  _580
REMARK  229  A    between atoms: _580  and  _581
REMARK  230  A    between atoms: _586  and  _588
REMARK  231  A    between atoms: _588  and  _589
REMARK  232  A    between atoms: _588  and  _591
REMARK  233  A    between atoms: _591  and  _592
REMARK  234  A    between atoms: _597  and  _599
REMARK  235  A    between atoms: _599  and  _600
REMARK  236  A    between atoms: _599  and  _602
REMARK  237  A    between atoms: _602  and  _603
REMARK  238  A    between atoms: _606  and  _608
REMARK  239  A    between atoms: _608  and  _609
REMARK  240  A    between atoms: _612  and  _614
REMARK  241  A    between atoms: _614  and  _615
REMARK  242  A    between atoms: _614  and  _617
REMARK  243  A    between atoms: _617  and  _618
REMARK  244  A    between atoms: _623  and  _625
REMARK  245  A    between atoms: _625  and  _626
REMARK  246  A    between atoms: _625  and  _628
REMARK  247  A    between atoms: _628  and  _629
REMARK  248  A    between atoms: _632  and  _634
REMARK  249  A    between atoms: _634  and  _635
REMARK  250  A    between atoms: _634  and  _637
REMARK  251  A    between atoms: _637  and  _638
REMARK  252  A    between atoms: _643  and  _644
REMARK  253  A    between atoms: _646  and  _648
REMARK  254  A    between atoms: _648  and  _649
REMARK  255  A    between atoms: _648  and  _651
REMARK  256  A    between atoms: _651  and  _652
REMARK  257  A    between atoms: _657  and  _658
REMARK  258  A    between atoms: _660  and  _662
REMARK  259  A    between atoms: _662  and  _663
REMARK  260  A    between atoms: _662  and  _665
REMARK  261  A    between atoms: _668  and  _670
REMARK  262  A    between atoms: _670  and  _671
REMARK  263  A    between atoms: _670  and  _673
REMARK  264  A    between atoms: _673  and  _674
REMARK  265  A    between atoms: _679  and  _681
REMARK  266  A    between atoms: _681  and  _682
REMARK  267  A    between atoms: _685  and  _687
REMARK  268  A    between atoms: _687  and  _688
REMARK  269  A    between atoms: _687  and  _690
REMARK  270  A    between atoms: _690  and  _691
REMARK  271  A    between atoms: _691  and  _692
REMARK  272  A    between atoms: _692  and  _693
REMARK  273  A    between atoms: _702  and  _704
REMARK  274  A    between atoms: _704  and  _705
REMARK  275  A    between atoms: _704  and  _707
REMARK  276  A    between atoms: _707  and  _708
REMARK  277  A    between atoms: _711  and  _713
REMARK  278  A    between atoms: _713  and  _714
REMARK  279  A    between atoms: _713  and  _716
REMARK  280  A    between atoms: _716  and  _717
REMARK  281  A    between atoms: _720  and  _722
REMARK  282  A    between atoms: _722  and  _723
REMARK  283  A    between atoms: _722  and  _725
REMARK  284  A    between atoms: _725  and  _726
REMARK                            x       y       z     vdW  Elec       q    Type
REMARK                         _______ _______ _______ _____ _____    ______ ____
ROOT
ATOM      1  C   THR A   1      11.388  17.257  24.482  0.00  0.00    +0.241 C 
ATOM      2  N   MET A   2      11.449  16.353  25.451  0.00  0.00    -0.298 N 
ATOM      3  H   MET A   2      11.534  15.347  25.202  0.00  0.00    +0.150 HD
ATOM      4  O   THR A   1      11.159  18.465  24.693  0.00  0.00    -0.274 OA
ENDROOT
BRANCH   1   5
ATOM      5  CA  THR A   1      11.519  16.741  23.046  0.00  0.00    +0.172 C 
BRANCH   5   6
ATOM      6  N   THR A   1      12.046  15.381  22.984  0.00  0.00    -0.236 NA
ATOM      7  H   THR A   1      11.400  14.609  22.721  0.00  0.00    +0.142 HD
ENDBRANCH   5   6
BRANCH   5   8
ATOM      8  CB  THR A   1      10.139  16.872  22.383  0.00  0.00    +0.135 C 
ATOM      9  CG2 THR A   1      10.188  16.453  20.921  0.00  0.00    +0.034 C 
BRANCH   8  10
ATOM     10  OG1 THR A   1       9.099  16.123  23.071  0.00  0.00    -0.383 OA
ATOM     11  HG1 THR A   1       9.337  15.162  23.080  0.00  0.00    +0.210 HD
ENDBRANCH   8  10
ENDBRANCH   5   8
ENDBRANCH   1   5
BRANCH   2  12
ATOM     12  CA  MET A   2      11.400  16.737  26.862  0.00  0.00    +0.138 C 
BRANCH  12  13
ATOM     13  C   MET A   2      12.789  16.771  27.504  0.00  0.00    +0.227 C 
ATOM     14  O   MET A   2      12.865  17.051  28.714  0.00  0.00    -0.286 OA
ENDBRANCH  12  13
BRANCH  12  15
ATOM     15  CB  MET A   2      10.469  15.775  27.607  0.00  0.00    +0.039 C 
BRANCH  15  16
ATOM     16  CG  MET A   2       9.004  15.910  27.139  0.00  0.00    +0.060 C 
BRANCH  16  17
ATOM     17  SD  MET A   2       8.330  17.504  27.659  0.00  0.00    -0.139 S 
ATOM     18  CE  MET A   2       6.635  17.319  27.022  0.00  0.00    +0.069 C 
ENDBRANCH  16  17
ENDBRANCH  15  16
ENDBRANCH  12  15
ENDBRANCH   2  12
TORSDOF 9
REMARK  Name = ../refined-set-2016/1b0h/1b0h_pocket.pdb
REMARK  284 active torsions:
REMARK  status: ('A' for Active; 'I' for Inactive)
REMARK    1  A    between atoms: _1  and  _3
REMARK    2  A    between atoms: _3  and  _4
REMARK    3  A    between atoms: _3  and  _6
REMARK    4  A    between atoms: _6  and  _7
REMARK    5  A    between atoms: _12  and  _14
REMARK    6  A    between atoms: _14  and  _15
REMARK    7  A    between atoms: _17  and  _19
REMARK    8  A    between atoms: _19  and  _20
REMARK    9  A    between atoms: _19  and  _22
REMARK   10  A    between atoms: _22  and  _23
REMARK   11  A    between atoms: _25  and  _27
REMARK   12  A    between atoms: _27  and  _28
REMARK   13  A    between atoms: _27  and  _30
REMARK   14  A    between atoms: _30  and  _31
REMARK   15  A    between atoms: _31  and  _32
REMARK   16  A    between atoms: _37  and  _39
REMARK   17  A    between atoms: _39  and  _40
REMARK   18  A    between atoms: _39  and  _42
REMARK   19  A    between atoms: _42  and  _43
REMARK   20  A    between atoms: _46  and  _48
REMARK   21  A    between atoms: _48  and  _49
REMARK   22  A    between atoms: _48  and  _51
REMARK   23  A    between atoms: _51  and  _52
REMARK   24  A    between atoms: _52  and  _53
REMARK   25  A    between atoms: _56  and  _58
REMARK   26  A    between atoms: _58  and  _59
REMARK   27  A    between atoms: _61  and  _63
REMARK   28  A    between atoms: _63  and  _64
REMARK   29  A    between atoms: _63  and  _66
REMARK   30  A    between atoms: _70  and  _71
REMARK   31  A    between atoms: _76  and  _78
REMARK   32  A    between atoms: _78  and  _79
REMARK   33  A    between atoms: _78  and  _81
REMARK   34  A    between atoms: _81  and  _82
REMARK   35  A    between atoms: _82  and  _83
REMARK   36  A    between atoms: _86  and  _88
REMARK   37  A    between atoms: _88  and  _89
REMARK   38  A    between atoms: _88  and  _91
REMARK   39  A    between atoms: _91  and  _92
REMARK   40  A    between atoms: _94  and  _96
REMARK   41  A    between atoms: _96  and  _97
REMARK   42  A    between atoms: _96  and  _99
REMARK   43  A    between atoms: _99  and  _100
REMARK   44  A    between atoms: _105  and  _107
REMARK   45  A    between atoms: _107  and  _108
REMARK   46  A    between atoms: _107  and  _110
REMARK   47  A    between atoms: _110  and  _111
REMARK   48  A    between atoms: _111  and  _112
REMARK   49  A    between atoms: _112  and  _113
REMARK   50  A    between atoms: _123  and  _124
REMARK   51  A    between atoms: _129  and  _131
REMARK   52  A    between atoms: _131  and  _132
REMARK   53  A    between atoms: _131  and  _134
REMARK   54  A    between atoms: _134  and  _135
REMARK   55  A    between atoms: _140  and  _141
REMARK   56  A    between atoms: _143  and  _145
REMARK   57  A    between atoms: _145  and  _146
REMARK   58  A    between atoms: _145  and  _148
REMARK   59  A    between atoms: _148  and  _149
REMARK   60  A    between atoms: _154  and  _155
REMARK   61  A    between atoms: _157  and  _159
REMARK   62  A    between atoms: _159  and  _160
REMARK   63  A    between atoms: _159  and  _162
REMARK   64  A    between atoms: _165  and  _167
REMARK   65  A    between atoms: _167  and  _168
REMARK   66  A    between atoms: _167  and  _170
REMARK   67  A    between atoms: _170  and  _171
REMARK   68  A    between atoms: _177  and  _178
REMARK   69  A    between atoms: _183  and  _185
REMARK   70  A    between atoms: _185  and  _186
REMARK   71  A    between atoms: _185  and  _188
REMARK   72  A    between atoms: _188  and  _189
REMARK   73  A    between atoms: _191  and  _193
REMARK   74  A    between atoms: _193  and  _194
REMARK   75  A    between atoms: _193  and  _196
REMARK   76  A    between atoms: _196  and  _197
REMARK   77  A    between atoms: _197  and  _198
REMARK   78  A    between atoms: _201  and  _203
REMARK   79  A    between atoms: _203  and  _204
REMARK   80  A    between atoms: _203  and  _206
REMARK   81  A    between atoms: _206  and  _207
REMARK   82  A    between atoms: _212  and  _213
REMARK   83  A    between atoms: _215  and  _217
REMARK   84  A    between atoms: _217  and  _218
REMARK   85  A    between atoms: _217  and  _220
REMARK   86  A    between atoms: _220  and  _221
REMARK   87  A    between atoms: _226  and  _228
REMARK   88  A    between atoms: _228  and  _229
REMARK   89  A    between atoms: _228  and  _231
REMARK   90  A    between atoms: _231  and  _232
REMARK   91  A    between atoms: _237  and  _239
REMARK   92  A    between atoms: _239  and  _240
REMARK   93  A    between atoms: _239  and  _242
REMARK   94  A    between atoms: _242  and  _243
REMARK   95  A    between atoms: _243  and  _244
REMARK   96  A    between atoms: _246  and  _248
REMARK   97  A    between atoms: _248  and  _249
REMARK   98  A    between atoms: _248  and  _251
REMARK   99  A    between atoms: _251  and  _252
REMARK  100  A    between atoms: _257  and  _258
REMARK  101  A    between atoms: _260  and  _262
REMARK  102  A    between atoms: _262  and  _263
REMARK  103  A    between atoms: _262  and  _265
REMARK  104  A    between atoms: _265  and  _266
REMARK  105  A    between atoms: _269  and  _271
REMARK  106  A    between atoms: _271  and  _272
REMARK  107  A    between atoms: _271  and  _274
REMARK  108  A    between atoms: _274  and  _275
REMARK  109  A    between atoms: _275  and  _491
REMARK  110  A    between atoms: _276  and  _278
REMARK  111  A    between atoms: _278  and  _279
REMARK  112  A    between atoms: _278  and  _281
REMARK  113  A    between atoms: _281  and  _282
REMARK  114  A    between atoms: _285  and  _287
REMARK  115  A    between atoms: _287  and  _288
REMARK  116  A    between atoms: _287  and  _290
REMARK  117  A    between atoms: _290  and  _291
REMARK  118  A    between atoms: _296  and  _297
REMARK  119  A    between atoms: _299  and  _301
REMARK  120  A    between atoms: _301  and  _302
REMARK  121  A    between atoms: _301  and  _304
REMARK  122  A    between atoms: _304  and  _305
REMARK  123  A    between atoms: _310  and  _311
REMARK  124  A    between atoms: _313  and  _315
REMARK  125  A    between atoms: _315  and  _316
REMARK  126  A    between atoms: _315  and  _318
REMARK  127  A    between atoms: _318  and  _319
REMARK  128  A    between atoms: _319  and  _320
REMARK  129  A    between atoms: _323  and  _325
REMARK  130  A    between atoms: _325  and  _326
REMARK  131  A    between atoms: _325  and  _328
REMARK  132  A    between atoms: _328  and  _329
REMARK  133  A    between atoms: _334  and  _335
REMARK  134  A    between atoms: _337  and  _339
REMARK  135  A    between atoms: _339  and  _340
REMARK  136  A    between atoms: _339  and  _342
REMARK  137  A    between atoms: _342  and  _343
REMARK  138  A    between atoms: _348  and  _350
REMARK  139  A    between atoms: _350  and  _351
REMARK  140  A    between atoms: _350  and  _353
REMARK  141  A    between atoms: _353  and  _354
REMARK  142  A    between atoms: _356  and  _358
REMARK  143  A    between atoms: _358  and  _359
REMARK  144  A    between atoms: _358  and  _361
REMARK  145  A    between atoms: _361  and  _362
REMARK  146  A    between atoms: _365  and  _367
REMARK  147  A    between atoms: _367  and  _368
REMARK  148  A    between atoms: _367  and  _370
REMARK  149  A    between atoms: _370  and  _371
REMARK  150  A    between atoms: _376  and  _378
REMARK  151  A    between atoms: _378  and  _379
REMARK  152  A    between atoms: _378  and  _381
REMARK  153  A    between atoms: _381  and  _382
REMARK  154  A    between atoms: _392  and  _394
REMARK  155  A    between atoms: _394  and  _395
REMARK  156  A    between atoms: _394  and  _397
REMARK  157  A    between atoms: _397  and  _398
REMARK  158  A    between atoms: _404  and  _406
REMARK  159  A    between atoms: _406  and  _407
REMARK  160  A    between atoms: _406  and  _409
REMARK  161  A    between atoms: _409  and  _410
REMARK  162  A    between atoms: _413  and  _415
REMARK  163  A    between atoms: _415  and  _416
REMARK  164  A    between atoms: _415  and  _418
REMARK  165  A    between atoms: _418  and  _419
REMARK  166  A    between atoms: _419  and  _420
REMARK  167  A    between atoms: _420  and  _421
REMARK  168  A    between atoms: _430  and  _432
REMARK  169  A    between atoms: _432  and  _433
REMARK  170  A    between atoms: _432  and  _435
REMARK  171  A    between atoms: _435  and  _436
REMARK  172  A    between atoms: _441  and  _443
REMARK  173  A    between atoms: _443  and  _444
REMARK  174  A    between atoms: _443  and  _446
REMARK  175  A    between atoms: _446  and  _447
REMARK  176  A    between atoms: _447  and  _448
REMARK  177  A    between atoms: _448  and  _449
REMARK  178  A    between atoms: _458  and  _460
REMARK  179  A    between atoms: _460  and  _461
REMARK  180  A    between atoms: _464  and  _466
REMARK  181  A    between atoms: _466  and  _467
REMARK  182  A    between atoms: _469  and  _471
REMARK  183  A    between atoms: _471  and  _472
REMARK  184  A    between atoms: _471  and  _474
REMARK  185  A    between atoms: _474  and  _475
REMARK  186  A    between atoms: _485  and  _487
REMARK  187  A    between atoms: _487  and  _488
REMARK  188  A    between atoms: _487  and  _490
REMARK  189  A    between atoms: _490  and  _491
REMARK  190  A    between atoms: _492  and  _494
REMARK  191  A    between atoms: _494  and  _495
REMARK  192  A    between atoms: _498  and  _500
REMARK  193  A    between atoms: _500  and  _501
REMARK  194  A    between atoms: _500  and  _503
REMARK  195  A    between atoms: _503  and  _504
REMARK  196  A    between atoms: _507  and  _509
REMARK  197  A    between atoms: _509  and  _510
REMARK  198  A    between atoms: _509  and  _512
REMARK  199  A    between atoms: _512  and  _513
REMARK  200  A    between atoms: _518  and  _519
REMARK  201  A    between atoms: _521  and  _523
REMARK  202  A    between atoms: _523  and  _524
REMARK  203  A    between atoms: _523  and  _526
REMARK  204  A    between atoms: _526  and  _527
REMARK  205  A    between atoms: _529  and  _531
REMARK  206  A    between atoms: _531  and  _532
REMARK  207  A    between atoms: _531  and  _534
REMARK  208  A    between atoms: _534  and  _535
REMARK  209  A    between atoms: _541  and  _543
REMARK  210  A    between atoms: _543  and  _544
REMARK  211  A    between atoms: _543  and  _546
REMARK  212  A    between atoms: _546  and  _547
REMARK  213  A    between atoms: _550  and  _552
REMARK  214  A    between atoms: _552  and  _553
REMARK  215  A    between atoms: _552  and  _555
REMARK  216  A    between atoms: _555  and  _556
REMARK  217  A    between atoms: _556  and  _557
REMARK  218  A    between atoms: _559  and  _561
REMARK  219  A    between atoms: _561  and  _562
REMARK  220  A    between atoms: _561  and  _564
REMARK  221  A    between atoms: _564  and  _565
REMARK  222  A    between atoms: _567  and  _569
REMARK  223  A    between atoms: _569  and  _570
REMARK  224  A    between atoms: _569  and  _572
REMARK  225  A    between atoms: _572  and  _573
REMARK  226  A    between atoms: _575  and  _577
REMARK  227  A    between atoms: _577  and  _578
REMARK  228  A    between atoms: _577  and  _580
REMARK  229  A    between atoms: _580  and  _581
REMARK  230  A    between atoms: _586  and  _588
REMARK  231  A    between atoms: _588  and  _589
REMARK  232  A    between atoms: _588  and  _591
REMARK  233  A    between atoms: _591  and  _592
REMARK  234  A    between atoms: _597  and  _599
REMARK  235  A    between atoms: _599  and  _600
REMARK  236  A    between atoms: _599  and  _602
REMARK  237  A    between atoms: _602  and  _603
REMARK  238  A    between atoms: _606  and  _608
REMARK  239  A    between atoms: _608  and  _609
REMARK  240  A    between atoms: _612  and  _614
REMARK  241  A    between atoms: _614  and  _615
REMARK  242  A    between atoms: _614  and  _617
REMARK  243  A    between atoms: _617  and  _618
REMARK  244  A    between atoms: _623  and  _625
REMARK  245  A    between atoms: _625  and  _626
REMARK  246  A    between atoms: _625  and  _628
REMARK  247  A    between atoms: _628  and  _629
REMARK  248  A    between atoms: _632  and  _634
REMARK  249  A    between atoms: _634  and  _635
REMARK  250  A    between atoms: _634  and  _637
REMARK  251  A    between atoms: _637  and  _638
REMARK  252  A    between atoms: _643  and  _644
REMARK  253  A    between atoms: _646  and  _648
REMARK  254  A    between atoms: _648  and  _649
REMARK  255  A    between atoms: _648  and  _651
REMARK  256  A    between atoms: _651  and  _652
REMARK  257  A    between atoms: _657  and  _658
REMARK  258  A    between atoms: _660  and  _662
REMARK  259  A    between atoms: _662  and  _663
REMARK  260  A    between atoms: _662  and  _665
REMARK  261  A    between atoms: _668  and  _670
REMARK  262  A    between atoms: _670  and  _671
REMARK  263  A    between atoms: _670  and  _673
REMARK  264  A    between atoms: _673  and  _674
REMARK  265  A    between atoms: _679  and  _681
REMARK  266  A    between atoms: _681  and  _682
REMARK  267  A    between atoms: _685  and  _687
REMARK  268  A    between atoms: _687  and  _688
REMARK  269  A    between atoms: _687  and  _690
REMARK  270  A    between atoms: _690  and  _691
REMARK  271  A    between atoms: _691  and  _692
REMARK  272  A    between atoms: _692  and  _693
REMARK  273  A    between atoms: _702  and  _704
REMARK  274  A    between atoms: _704  and  _705
REMARK  275  A    between atoms: _704  and  _707
REMARK  276  A    between atoms: _707  and  _708
REMARK  277  A    between atoms: _711  and  _713
REMARK  278  A    between atoms: _713  and  _714
REMARK  279  A    between atoms: _713  and  _716
REMARK  280  A    between atoms: _716  and  _717
REMARK  281  A    between atoms: _720  and  _722
REMARK  282  A    between atoms: _722  and  _723
REMARK  283  A    between atoms: _722  and  _725
REMARK  284  A    between atoms: _725  and  _726
REMARK                            x       y       z     vdW  Elec       q    Type
REMARK                         _______ _______ _______ _____ _____    ______ ____
ROOT
ATOM      1  CA  ASN A   4      11.100  21.670  24.622  0.00  0.00    +0.158 C 
ENDROOT
BRANCH   1   3
ATOM      2  C   ASN A   3      10.932  21.404  22.211  0.00  0.00    +0.241 C 
ATOM      3  N   ASN A   4      11.672  21.682  23.281  0.00  0.00    -0.297 N 
ATOM      4  H   ASN A   4      12.679  21.913  23.158  0.00  0.00    +0.150 HD
ATOM      5  O   ASN A   3       9.709  21.149  22.270  0.00  0.00    -0.273 OA
BRANCH   2   6
ATOM      6  CA  ASN A   3      11.601  21.386  20.827  0.00  0.00    +0.158 C 
BRANCH   6   8
ATOM      7  C   SER A   2      13.595  22.809  20.765  0.00  0.00    +0.243 C 
ATOM      8  N   ASN A   3      13.032  21.621  20.907  0.00  0.00    -0.297 N 
ATOM      9  H   ASN A   3      13.652  20.805  21.087  0.00  0.00    +0.150 HD
ATOM     10  O   SER A   2      12.896  23.817  20.538  0.00  0.00    -0.273 OA
BRANCH   7  11
ATOM     11  CA  SER A   2      15.115  22.944  20.929  0.00  0.00    +0.178 C 
BRANCH  11  14
ATOM     12  C   SER A   1      15.419  21.515  22.891  0.00  0.00    +0.241 C 
ATOM     13  O   SER A   1      14.629  22.202  23.543  0.00  0.00    -0.274 OA
ATOM     14  N   SER A   2      15.681  21.801  21.619  0.00  0.00    -0.295 N 
ATOM     15  H   SER A   2      16.323  21.174  21.093  0.00  0.00    +0.150 HD
BRANCH  12  16
ATOM     16  CA  SER A   1      15.959  20.212  23.434  0.00  0.00    +0.174 C 
BRANCH  16  17
ATOM     17  N   SER A   1      16.543  20.367  24.782  0.00  0.00    -0.236 NA
ATOM     18  H   SER A   1      16.090  19.921  25.605  0.00  0.00    +0.142 HD
ENDBRANCH  16  17
BRANCH  16  19
ATOM     19  CB  SER A   1      14.825  19.184  23.517  0.00  0.00    +0.163 C 
BRANCH  19  20
ATOM     20  OG  SER A   1      14.169  19.168  22.243  0.00  0.00    -0.380 OA
ATOM     21  H   SER A   1      14.819  18.913  21.542  0.00  0.00    +0.211 HD
ENDBRANCH  19  20
ENDBRANCH  16  19
ENDBRANCH  12  16
ENDBRANCH  11  14
BRANCH  11  22
ATOM     22  CB  SER A   2      15.801  23.096  19.568  0.00  0.00    +0.166 C 
BRANCH  22  23
ATOM     23  OG  SER A   2      15.530  22.078  18.639  0.00  0.00    -0.380 OA
ATOM     24  H   SER A   2      14.557  22.046  18.461  0.00  0.00    +0.211 HD
ENDBRANCH  22  23
ENDBRANCH  11  22
ENDBRANCH   7  11
ENDBRANCH   6   8
BRANCH   6  25
ATOM     25  CB  ASN A   3      11.320  19.995  20.240  0.00  0.00    +0.114 C 
BRANCH  25  26
ATOM     26  CG  ASN A   3      11.775  19.708  18.828  0.00  0.00    +0.222 C 
ATOM     27  OD1 ASN A   3      12.362  18.627  18.612  0.00  0.00    -0.275 OA
ATOM     28  ND2 ASN A   3      11.459  20.561  17.858  0.00  0.00    -0.329 N 
ATOM     29 HD21 ASN A   3      10.970  21.450  18.086  0.00  0.00    +0.145 HD
ATOM     30 HD22 ASN A   3      11.701  20.339  16.871  0.00  0.00    +0.145 HD
ENDBRANCH  25  26
ENDBRANCH   6  25
ENDBRANCH   2   6
ENDBRANCH   1   3
BRANCH   1  31
ATOM     31  C   ASN A   4      10.362  22.974  24.929  0.00  0.00    +0.241 C 
ATOM     32  O   ASN A   4      10.882  23.911  25.551  0.00  0.00    -0.273 OA
ATOM     33  N   THR A   5       9.093  22.999  24.533  0.00  0.00    -0.295 N 
ATOM     34  H   THR A   5       8.698  22.176  24.035  0.00  0.00    +0.150 HD
BRANCH  33  35
ATOM     35  CA  THR A   5       8.241  24.163  24.785  0.00  0.00    +0.176 C 
BRANCH  35  36
ATOM     36  C   THR A   5       7.537  23.980  26.123  0.00  0.00    +0.243 C 
ATOM     37  N   ALA A   6       7.683  22.808  26.760  0.00  0.00    -0.297 N 
ATOM     38  H   ALA A   6       8.184  22.021  26.301  0.00  0.00    +0.150 HD
ATOM     39  O   THR A   5       6.903  24.926  26.592  0.00  0.00    -0.273 OA
BRANCH  37  40
ATOM     40  CA  ALA A   6       7.130  22.646  28.110  0.00  0.00    +0.149 C 
ATOM     41  CB  ALA A   6       7.056  21.157  28.480  0.00  0.00    +0.031 C 
BRANCH  40  42
ATOM     42  C   ALA A   6       8.038  23.347  29.121  0.00  0.00    +0.241 C 
ATOM     43  O   ALA A   6       7.684  23.557  30.297  0.00  0.00    -0.273 OA
ATOM     44  N   HIS A   7       9.282  23.641  28.725  0.00  0.00    -0.298 N 
ATOM     45  H   HIS A   7       9.530  23.438  27.736  0.00  0.00    +0.150 HD
BRANCH  44  46
ATOM     46  CA  HIS A   7      10.307  24.217  29.561  0.00  0.00    +0.143 C 
BRANCH  46  47
ATOM     47  C   HIS A   7      10.544  23.321  30.781  0.00  0.00    +0.227 C 
ATOM     48  O   HIS A   7      10.706  23.762  31.926  0.00  0.00    -0.286 OA
ENDBRANCH  46  47
BRANCH  46  49
ATOM     49  CB  HIS A   7       9.927  25.666  29.963  0.00  0.00    +0.075 C 
BRANCH  49  50
ATOM     50  CG  HIS A   7       9.865  26.505  28.708  0.00  0.00    +0.082 A 
ATOM     51  ND1 HIS A   7      10.963  27.101  28.123  0.00  0.00    -0.227 NA
ATOM     52  CE1 HIS A   7      10.577  27.724  27.026  0.00  0.00    +0.199 A 
ATOM     53  NE2 HIS A   7       9.269  27.553  26.860  0.00  0.00    -0.221 NA
ATOM     54  CD2 HIS A   7       8.813  26.793  27.910  0.00  0.00    +0.115 A 
ENDBRANCH  49  50
ENDBRANCH  46  49
ENDBRANCH  44  46
ENDBRANCH  40  42
ENDBRANCH  37  40
ENDBRANCH  35  36
BRANCH  35  55
ATOM     55  CB  THR A   5       7.181  24.340  23.680  0.00  0.00    +0.137 C 
ATOM     56  CG2 THR A   5       7.839  24.912  22.430  0.00  0.00    +0.034 C 
BRANCH  55  57
ATOM     57  OG1 THR A   5       6.654  23.049  23.354  0.00  0.00    -0.382 OA
ATOM     58  HG1 THR A   5       6.242  22.649  24.160  0.00  0.00    +0.210 HD
ENDBRANCH  55  57
ENDBRANCH  35  55
ENDBRANCH  33  35
ENDBRANCH   1  31
BRANCH   1  59
ATOM     59  CB  ASN A   4      12.190  21.344  25.659  0.00  0.00    +0.114 C 
BRANCH  59  60
ATOM     60  CG  ASN A   4      11.657  21.032  27.048  0.00  0.00    +0.222 C 
ATOM     61  ND2 ASN A   4      12.427  20.239  27.792  0.00  0.00    -0.329 N 
ATOM     62 HD21 ASN A   4      12.128  19.976  28.753  0.00  0.00    +0.145 HD
ATOM     63 HD22 ASN A   4      13.327  19.883  27.412  0.00  0.00    +0.145 HD
ATOM     64  OD1 ASN A   4      10.598  21.453  27.491  0.00  0.00    -0.275 OA
ENDBRANCH  59  60
ENDBRANCH   1  59
TORSDOF 26
REMARK  Name = ../refined-set-2016/1b0h/1b0h_pocket.pdb
REMARK  284 active torsions:
REMARK  status: ('A' for Active; 'I' for Inactive)
REMARK    1  A    between atoms: _1  and  _3
REMARK    2  A    between atoms: _3  and  _4
REMARK    3  A    between atoms: _3  and  _6
REMARK    4  A    between atoms: _6  and  _7
REMARK    5  A    between atoms: _12  and  _14
REMARK    6  A    between atoms: _14  and  _15
REMARK    7  A    between atoms: _17  and  _19
REMARK    8  A    between atoms: _19  and  _20
REMARK    9  A    between atoms: _19  and  _22
REMARK   10  A    between atoms: _22  and  _23
REMARK   11  A    between atoms: _25  and  _27
REMARK   12  A    between atoms: _27  and  _28
REMARK   13  A    between atoms: _27  and  _30
REMARK   14  A    between atoms: _30  and  _31
REMARK   15  A    between atoms: _31  and  _32
REMARK   16  A    between atoms: _37  and  _39
REMARK   17  A    between atoms: _39  and  _40
REMARK   18  A    between atoms: _39  and  _42
REMARK   19  A    between atoms: _42  and  _43
REMARK   20  A    between atoms: _46  and  _48
REMARK   21  A    between atoms: _48  and  _49
REMARK   22  A    between atoms: _48  and  _51
REMARK   23  A    between atoms: _51  and  _52
REMARK   24  A    between atoms: _52  and  _53
REMARK   25  A    between atoms: _56  and  _58
REMARK   26  A    between atoms: _58  and  _59
REMARK   27  A    between atoms: _61  and  _63
REMARK   28  A    between atoms: _63  and  _64
REMARK   29  A    between atoms: _63  and  _66
REMARK   30  A    between atoms: _70  and  _71
REMARK   31  A    between atoms: _76  and  _78
REMARK   32  A    between atoms: _78  and  _79
REMARK   33  A    between atoms: _78  and  _81
REMARK   34  A    between atoms: _81  and  _82
REMARK   35  A    between atoms: _82  and  _83
REMARK   36  A    between atoms: _86  and  _88
REMARK   37  A    between atoms: _88  and  _89
REMARK   38  A    between atoms: _88  and  _91
REMARK   39  A    between atoms: _91  and  _92
REMARK   40  A    between atoms: _94  and  _96
REMARK   41  A    between atoms: _96  and  _97
REMARK   42  A    between atoms: _96  and  _99
REMARK   43  A    between atoms: _99  and  _100
REMARK   44  A    between atoms: _105  and  _107
REMARK   45  A    between atoms: _107  and  _108
REMARK   46  A    between atoms: _107  and  _110
REMARK   47  A    between atoms: _110  and  _111
REMARK   48  A    between atoms: _111  and  _112
REMARK   49  A    between atoms: _112  and  _113
REMARK   50  A    between atoms: _123  and  _124
REMARK   51  A    between atoms: _129  and  _131
REMARK   52  A    between atoms: _131  and  _132
REMARK   53  A    between atoms: _131  and  _134
REMARK   54  A    between atoms: _134  and  _135
REMARK   55  A    between atoms: _140  and  _141
REMARK   56  A    between atoms: _143  and  _145
REMARK   57  A    between atoms: _145  and  _146
REMARK   58  A    between atoms: _145  and  _148
REMARK   59  A    between atoms: _148  and  _149
REMARK   60  A    between atoms: _154  and  _155
REMARK   61  A    between atoms: _157  and  _159
REMARK   62  A    between atoms: _159  and  _160
REMARK   63  A    between atoms: _159  and  _162
REMARK   64  A    between atoms: _165  and  _167
REMARK   65  A    between atoms: _167  and  _168
REMARK   66  A    between atoms: _167  and  _170
REMARK   67  A    between atoms: _170  and  _171
REMARK   68  A    between atoms: _177  and  _178
REMARK   69  A    between atoms: _183  and  _185
REMARK   70  A    between atoms: _185  and  _186
REMARK   71  A    between atoms: _185  and  _188
REMARK   72  A    between atoms: _188  and  _189
REMARK   73  A    between atoms: _191  and  _193
REMARK   74  A    between atoms: _193  and  _194
REMARK   75  A    between atoms: _193  and  _196
REMARK   76  A    between atoms: _196  and  _197
REMARK   77  A    between atoms: _197  and  _198
REMARK   78  A    between atoms: _201  and  _203
REMARK   79  A    between atoms: _203  and  _204
REMARK   80  A    between atoms: _203  and  _206
REMARK   81  A    between atoms: _206  and  _207
REMARK   82  A    between atoms: _212  and  _213
REMARK   83  A    between atoms: _215  and  _217
REMARK   84  A    between atoms: _217  and  _218
REMARK   85  A    between atoms: _217  and  _220
REMARK   86  A    between atoms: _220  and  _221
REMARK   87  A    between atoms: _226  and  _228
REMARK   88  A    between atoms: _228  and  _229
REMARK   89  A    between atoms: _228  and  _231
REMARK   90  A    between atoms: _231  and  _232
REMARK   91  A    between atoms: _237  and  _239
REMARK   92  A    between atoms: _239  and  _240
REMARK   93  A    between atoms: _239  and  _242
REMARK   94  A    between atoms: _242  and  _243
REMARK   95  A    between atoms: _243  and  _244
REMARK   96  A    between atoms: _246  and  _248
REMARK   97  A    between atoms: _248  and  _249
REMARK   98  A    between atoms: _248  and  _251
REMARK   99  A    between atoms: _251  and  _252
REMARK  100  A    between atoms: _257  and  _258
REMARK  101  A    between atoms: _260  and  _262
REMARK  102  A    between atoms: _262  and  _263
REMARK  103  A    between atoms: _262  and  _265
REMARK  104  A    between atoms: _265  and  _266
REMARK  105  A    between atoms: _269  and  _271
REMARK  106  A    between atoms: _271  and  _272
REMARK  107  A    between atoms: _271  and  _274
REMARK  108  A    between atoms: _274  and  _275
REMARK  109  A    between atoms: _275  and  _491
REMARK  110  A    between atoms: _276  and  _278
REMARK  111  A    between atoms: _278  and  _279
REMARK  112  A    between atoms: _278  and  _281
REMARK  113  A    between atoms: _281  and  _282
REMARK  114  A    between atoms: _285  and  _287
REMARK  115  A    between atoms: _287  and  _288
REMARK  116  A    between atoms: _287  and  _290
REMARK  117  A    between atoms: _290  and  _291
REMARK  118  A    between atoms: _296  and  _297
REMARK  119  A    between atoms: _299  and  _301
REMARK  120  A    between atoms: _301  and  _302
REMARK  121  A    between atoms: _301  and  _304
REMARK  122  A    between atoms: _304  and  _305
REMARK  123  A    between atoms: _310  and  _311
REMARK  124  A    between atoms: _313  and  _315
REMARK  125  A    between atoms: _315  and  _316
REMARK  126  A    between atoms: _315  and  _318
REMARK  127  A    between atoms: _318  and  _319
REMARK  128  A    between atoms: _319  and  _320
REMARK  129  A    between atoms: _323  and  _325
REMARK  130  A    between atoms: _325  and  _326
REMARK  131  A    between atoms: _325  and  _328
REMARK  132  A    between atoms: _328  and  _329
REMARK  133  A    between atoms: _334  and  _335
REMARK  134  A    between atoms: _337  and  _339
REMARK  135  A    between atoms: _339  and  _340
REMARK  136  A    between atoms: _339  and  _342
REMARK  137  A    between atoms: _342  and  _343
REMARK  138  A    between atoms: _348  and  _350
REMARK  139  A    between atoms: _350  and  _351
REMARK  140  A    between atoms: _350  and  _353
REMARK  141  A    between atoms: _353  and  _354
REMARK  142  A    between atoms: _356  and  _358
REMARK  143  A    between atoms: _358  and  _359
REMARK  144  A    between atoms: _358  and  _361
REMARK  145  A    between atoms: _361  and  _362
REMARK  146  A    between atoms: _365  and  _367
REMARK  147  A    between atoms: _367  and  _368
REMARK  148  A    between atoms: _367  and  _370
REMARK  149  A    between atoms: _370  and  _371
REMARK  150  A    between atoms: _376  and  _378
REMARK  151  A    between atoms: _378  and  _379
REMARK  152  A    between atoms: _378  and  _381
REMARK  153  A    between atoms: _381  and  _382
REMARK  154  A    between atoms: _392  and  _394
REMARK  155  A    between atoms: _394  and  _395
REMARK  156  A    between atoms: _394  and  _397
REMARK  157  A    between atoms: _397  and  _398
REMARK  158  A    between atoms: _404  and  _406
REMARK  159  A    between atoms: _406  and  _407
REMARK  160  A    between atoms: _406  and  _409
REMARK  161  A    between atoms: _409  and  _410
REMARK  162  A    between atoms: _413  and  _415
REMARK  163  A    between atoms: _415  and  _416
REMARK  164  A    between atoms: _415  and  _418
REMARK  165  A    between atoms: _418  and  _419
REMARK  166  A    between atoms: _419  and  _420
REMARK  167  A    between atoms: _420  and  _421
REMARK  168  A    between atoms: _430  and  _432
REMARK  169  A    between atoms: _432  and  _433
REMARK  170  A    between atoms: _432  and  _435
REMARK  171  A    between atoms: _435  and  _436
REMARK  172  A    between atoms: _441  and  _443
REMARK  173  A    between atoms: _443  and  _444
REMARK  174  A    between atoms: _443  and  _446
REMARK  175  A    between atoms: _446  and  _447
REMARK  176  A    between atoms: _447  and  _448
REMARK  177  A    between atoms: _448  and  _449
REMARK  178  A    between atoms: _458  and  _460
REMARK  179  A    between atoms: _460  and  _461
REMARK  180  A    between atoms: _464  and  _466
REMARK  181  A    between atoms: _466  and  _467
REMARK  182  A    between atoms: _469  and  _471
REMARK  183  A    between atoms: _471  and  _472
REMARK  184  A    between atoms: _471  and  _474
REMARK  185  A    between atoms: _474  and  _475
REMARK  186  A    between atoms: _485  and  _487
REMARK  187  A    between atoms: _487  and  _488
REMARK  188  A    between atoms: _487  and  _490
REMARK  189  A    between atoms: _490  and  _491
REMARK  190  A    between atoms: _492  and  _494
REMARK  191  A    between atoms: _494  and  _495
REMARK  192  A    between atoms: _498  and  _500
REMARK  193  A    between atoms: _500  and  _501
REMARK  194  A    between atoms: _500  and  _503
REMARK  195  A    between atoms: _503  and  _504
REMARK  196  A    between atoms: _507  and  _509
REMARK  197  A    between atoms: _509  and  _510
REMARK  198  A    between atoms: _509  and  _512
REMARK  199  A    between atoms: _512  and  _513
REMARK  200  A    between atoms: _518  and  _519
REMARK  201  A    between atoms: _521  and  _523
REMARK  202  A    between atoms: _523  and  _524
REMARK  203  A    between atoms: _523  and  _526
REMARK  204  A    between atoms: _526  and  _527
REMARK  205  A    between atoms: _529  and  _531
REMARK  206  A    between atoms: _531  and  _532
REMARK  207  A    between atoms: _531  and  _534
REMARK  208  A    between atoms: _534  and  _535
REMARK  209  A    between atoms: _541  and  _543
REMARK  210  A    between atoms: _543  and  _544
REMARK  211  A    between atoms: _543  and  _546
REMARK  212  A    between atoms: _546  and  _547
REMARK  213  A    between atoms: _550  and  _552
REMARK  214  A    between atoms: _552  and  _553
REMARK  215  A    between atoms: _552  and  _555
REMARK  216  A    between atoms: _555  and  _556
REMARK  217  A    between atoms: _556  and  _557
REMARK  218  A    between atoms: _559  and  _561
REMARK  219  A    between atoms: _561  and  _562
REMARK  220  A    between atoms: _561  and  _564
REMARK  221  A    between atoms: _564  and  _565
REMARK  222  A    between atoms: _567  and  _569
REMARK  223  A    between atoms: _569  and  _570
REMARK  224  A    between atoms: _569  and  _572
REMARK  225  A    between atoms: _572  and  _573
REMARK  226  A    between atoms: _575  and  _577
REMARK  227  A    between atoms: _577  and  _578
REMARK  228  A    between atoms: _577  and  _580
REMARK  229  A    between atoms: _580  and  _581
REMARK  230  A    between atoms: _586  and  _588
REMARK  231  A    between atoms: _588  and  _589
REMARK  232  A    between atoms: _588  and  _591
REMARK  233  A    between atoms: _591  and  _592
REMARK  234  A    between atoms: _597  and  _599
REMARK  235  A    between atoms: _599  and  _600
REMARK  236  A    between atoms: _599  and  _602
REMARK  237  A    between atoms: _602  and  _603
REMARK  238  A    between atoms: _606  and  _608
REMARK  239  A    between atoms: _608  and  _609
REMARK  240  A    between atoms: _612  and  _614
REMARK  241  A    between atoms: _614  and  _615
REMARK  242  A    between atoms: _614  and  _617
REMARK  243  A    between atoms: _617  and  _618
REMARK  244  A    between atoms: _623  and  _625
REMARK  245  A    between atoms: _625  and  _626
REMARK  246  A    between atoms: _625  and  _628
REMARK  247  A    between atoms: _628  and  _629
REMARK  248  A    between atoms: _632  and  _634
REMARK  249  A    between atoms: _634  and  _635
REMARK  250  A    between atoms: _634  and  _637
REMARK  251  A    between atoms: _637  and  _638
REMARK  252  A    between atoms: _643  and  _644
REMARK  253  A    between atoms: _646  and  _648
REMARK  254  A    between atoms: _648  and  _649
REMARK  255  A    between atoms: _648  and  _651
REMARK  256  A    between atoms: _651  and  _652
REMARK  257  A    between atoms: _657  and  _658
REMARK  258  A    between atoms: _660  and  _662
REMARK  259  A    between atoms: _662  and  _663
REMARK  260  A    between atoms: _662  and  _665
REMARK  261  A    between atoms: _668  and  _670
REMARK  262  A    between atoms: _670  and  _671
REMARK  263  A    between atoms: _670  and  _673
REMARK  264  A    between atoms: _673  and  _674
REMARK  265  A    between atoms: _679  and  _681
REMARK  266  A    between atoms: _681  and  _682
REMARK  267  A    between atoms: _685  and  _687
REMARK  268  A    between atoms: _687  and  _688
REMARK  269  A    between atoms: _687  and  _690
REMARK  270  A    between atoms: _690  and  _691
REMARK  271  A    between atoms: _691  and  _692
REMARK  272  A    between atoms: _692  and  _693
REMARK  273  A    between atoms: _702  and  _704
REMARK  274  A    between atoms: _704  and  _705
REMARK  275  A    between atoms: _704  and  _707
REMARK  276  A    between atoms: _707  and  _708
REMARK  277  A    between atoms: _711  and  _713
REMARK  278  A    between atoms: _713  and  _714
REMARK  279  A    between atoms: _713  and  _716
REMARK  280  A    between atoms: _716  and  _717
REMARK  281  A    between atoms: _720  and  _722
REMARK  282  A    between atoms: _722  and  _723
REMARK  283  A    between atoms: _722  and  _725
REMARK  284  A    between atoms: _725  and  _726
REMARK                            x       y       z     vdW  Elec       q    Type
REMARK                         _______ _______ _______ _____ _____    ______ ____
ROOT
ATOM      1  CA  ILE A   1       1.989  17.653  30.918  0.00  0.00    +0.133 C 
ENDROOT
BRANCH   1   2
ATOM      2  N   ILE A   1       3.081  17.312  31.809  0.00  0.00    -0.239 NA
ATOM      3  H   ILE A   1       3.169  16.324  32.121  0.00  0.00    +0.142 HD
ENDBRANCH   1   2
BRANCH   1   4
ATOM      4  C   ILE A   1       0.647  17.119  31.403  0.00  0.00    +0.224 C 
ATOM      5  O   ILE A   1       0.556  16.320  32.359  0.00  0.00    -0.287 OA
ENDBRANCH   1   4
BRANCH   1   6
ATOM      6  CB  ILE A   1       2.221  17.101  29.485  0.00  0.00    +0.023 C 
ATOM      7  CG2 ILE A   1       3.528  17.626  28.888  0.00  0.00    +0.002 C 
BRANCH   6   8
ATOM      8  CG1 ILE A   1       2.203  15.579  29.469  0.00  0.00    +0.002 C 
ATOM      9  CD1 ILE A   1       2.083  14.909  28.112  0.00  0.00    +0.000 C 
ENDBRANCH   6   8
ENDBRANCH   1   6
TORSDOF 4
REMARK  Name = ../refined-set-2016/1b0h/1b0h_pocket.pdb
REMARK  284 active torsions:
REMARK  status: ('A' for Active; 'I' for Inactive)
REMARK    1  A    between atoms: _1  and  _3
REMARK    2  A    between atoms: _3  and  _4
REMARK    3  A    between atoms: _3  and  _6
REMARK    4  A    between atoms: _6  and  _7
REMARK    5  A    between atoms: _12  and  _14
REMARK    6  A    between atoms: _14  and  _15
REMARK    7  A    between atoms: _17  and  _19
REMARK    8  A    between atoms: _19  and  _20
REMARK    9  A    between atoms: _19  and  _22
REMARK   10  A    between atoms: _22  and  _23
REMARK   11  A    between atoms: _25  and  _27
REMARK   12  A    between atoms: _27  and  _28
REMARK   13  A    between atoms: _27  and  _30
REMARK   14  A    between atoms: _30  and  _31
REMARK   15  A    between atoms: _31  and  _32
REMARK   16  A    between atoms: _37  and  _39
REMARK   17  A    between atoms: _39  and  _40
REMARK   18  A    between atoms: _39  and  _42
REMARK   19  A    between atoms: _42  and  _43
REMARK   20  A    between atoms: _46  and  _48
REMARK   21  A    between atoms: _48  and  _49
REMARK   22  A    between atoms: _48  and  _51
REMARK   23  A    between atoms: _51  and  _52
REMARK   24  A    between atoms: _52  and  _53
REMARK   25  A    between atoms: _56  and  _58
REMARK   26  A    between atoms: _58  and  _59
REMARK   27  A    between atoms: _61  and  _63
REMARK   28  A    between atoms: _63  and  _64
REMARK   29  A    between atoms: _63  and  _66
REMARK   30  A    between atoms: _70  and  _71
REMARK   31  A    between atoms: _76  and  _78
REMARK   32  A    between atoms: _78  and  _79
REMARK   33  A    between atoms: _78  and  _81
REMARK   34  A    between atoms: _81  and  _82
REMARK   35  A    between atoms: _82  and  _83
REMARK   36  A    between atoms: _86  and  _88
REMARK   37  A    between atoms: _88  and  _89
REMARK   38  A    between atoms: _88  and  _91
REMARK   39  A    between atoms: _91  and  _92
REMARK   40  A    between atoms: _94  and  _96
REMARK   41  A    between atoms: _96  and  _97
REMARK   42  A    between atoms: _96  and  _99
REMARK   43  A    between atoms: _99  and  _100
REMARK   44  A    between atoms: _105  and  _107
REMARK   45  A    between atoms: _107  and  _108
REMARK   46  A    between atoms: _107  and  _110
REMARK   47  A    between atoms: _110  and  _111
REMARK   48  A    between atoms: _111  and  _112
REMARK   49  A    between atoms: _112  and  _113
REMARK   50  A    between atoms: _123  and  _124
REMARK   51  A    between atoms: _129  and  _131
REMARK   52  A    between atoms: _131  and  _132
REMARK   53  A    between atoms: _131  and  _134
REMARK   54  A    between atoms: _134  and  _135
REMARK   55  A    between atoms: _140  and  _141
REMARK   56  A    between atoms: _143  and  _145
REMARK   57  A    between atoms: _145  and  _146
REMARK   58  A    between atoms: _145  and  _148
REMARK   59  A    between atoms: _148  and  _149
REMARK   60  A    between atoms: _154  and  _155
REMARK   61  A    between atoms: _157  and  _159
REMARK   62  A    between atoms: _159  and  _160
REMARK   63  A    between atoms: _159  and  _162
REMARK   64  A    between atoms: _165  and  _167
REMARK   65  A    between atoms: _167  and  _168
REMARK   66  A    between atoms: _167  and  _170
REMARK   67  A    between atoms: _170  and  _171
REMARK   68  A    between atoms: _177  and  _178
REMARK   69  A    between atoms: _183  and  _185
REMARK   70  A    between atoms: _185  and  _186
REMARK   71  A    between atoms: _185  and  _188
REMARK   72  A    between atoms: _188  and  _189
REMARK   73  A    between atoms: _191  and  _193
REMARK   74  A    between atoms: _193  and  _194
REMARK   75  A    between atoms: _193  and  _196
REMARK   76  A    between atoms: _196  and  _197
REMARK   77  A    between atoms: _197  and  _198
REMARK   78  A    between atoms: _201  and  _203
REMARK   79  A    between atoms: _203  and  _204
REMARK   80  A    between atoms: _203  and  _206
REMARK   81  A    between atoms: _206  and  _207
REMARK   82  A    between atoms: _212  and  _213
REMARK   83  A    between atoms: _215  and  _217
REMARK   84  A    between atoms: _217  and  _218
REMARK   85  A    between atoms: _217  and  _220
REMARK   86  A    between atoms: _220  and  _221
REMARK   87  A    between atoms: _226  and  _228
REMARK   88  A    between atoms: _228  and  _229
REMARK   89  A    between atoms: _228  and  _231
REMARK   90  A    between atoms: _231  and  _232
REMARK   91  A    between atoms: _237  and  _239
REMARK   92  A    between atoms: _239  and  _240
REMARK   93  A    between atoms: _239  and  _242
REMARK   94  A    between atoms: _242  and  _243
REMARK   95  A    between atoms: _243  and  _244
REMARK   96  A    between atoms: _246  and  _248
REMARK   97  A    between atoms: _248  and  _249
REMARK   98  A    between atoms: _248  and  _251
REMARK   99  A    between atoms: _251  and  _252
REMARK  100  A    between atoms: _257  and  _258
REMARK  101  A    between atoms: _260  and  _262
REMARK  102  A    between atoms: _262  and  _263
REMARK  103  A    between atoms: _262  and  _265
REMARK  104  A    between atoms: _265  and  _266
REMARK  105  A    between atoms: _269  and  _271
REMARK  106  A    between atoms: _271  and  _272
REMARK  107  A    between atoms: _271  and  _274
REMARK  108  A    between atoms: _274  and  _275
REMARK  109  A    between atoms: _275  and  _491
REMARK  110  A    between atoms: _276  and  _278
REMARK  111  A    between atoms: _278  and  _279
REMARK  112  A    between atoms: _278  and  _281
REMARK  113  A    between atoms: _281  and  _282
REMARK  114  A    between atoms: _285  and  _287
REMARK  115  A    between atoms: _287  and  _288
REMARK  116  A    between atoms: _287  and  _290
REMARK  117  A    between atoms: _290  and  _291
REMARK  118  A    between atoms: _296  and  _297
REMARK  119  A    between atoms: _299  and  _301
REMARK  120  A    between atoms: _301  and  _302
REMARK  121  A    between atoms: _301  and  _304
REMARK  122  A    between atoms: _304  and  _305
REMARK  123  A    between atoms: _310  and  _311
REMARK  124  A    between atoms: _313  and  _315
REMARK  125  A    between atoms: _315  and  _316
REMARK  126  A    between atoms: _315  and  _318
REMARK  127  A    between atoms: _318  and  _319
REMARK  128  A    between atoms: _319  and  _320
REMARK  129  A    between atoms: _323  and  _325
REMARK  130  A    between atoms: _325  and  _326
REMARK  131  A    between atoms: _325  and  _328
REMARK  132  A    between atoms: _328  and  _329
REMARK  133  A    between atoms: _334  and  _335
REMARK  134  A    between atoms: _337  and  _339
REMARK  135  A    between atoms: _339  and  _340
REMARK  136  A    between atoms: _339  and  _342
REMARK  137  A    between atoms: _342  and  _343
REMARK  138  A    between atoms: _348  and  _350
REMARK  139  A    between atoms: _350  and  _351
REMARK  140  A    between atoms: _350  and  _353
REMARK  141  A    between atoms: _353  and  _354
REMARK  142  A    between atoms: _356  and  _358
REMARK  143  A    between atoms: _358  and  _359
REMARK  144  A    between atoms: _358  and  _361
REMARK  145  A    between atoms: _361  and  _362
REMARK  146  A    between atoms: _365  and  _367
REMARK  147  A    between atoms: _367  and  _368
REMARK  148  A    between atoms: _367  and  _370
REMARK  149  A    between atoms: _370  and  _371
REMARK  150  A    between atoms: _376  and  _378
REMARK  151  A    between atoms: _378  and  _379
REMARK  152  A    between atoms: _378  and  _381
REMARK  153  A    between atoms: _381  and  _382
REMARK  154  A    between atoms: _392  and  _394
REMARK  155  A    between atoms: _394  and  _395
REMARK  156  A    between atoms: _394  and  _397
REMARK  157  A    between atoms: _397  and  _398
REMARK  158  A    between atoms: _404  and  _406
REMARK  159  A    between atoms: _406  and  _407
REMARK  160  A    between atoms: _406  and  _409
REMARK  161  A    between atoms: _409  and  _410
REMARK  162  A    between atoms: _413  and  _415
REMARK  163  A    between atoms: _415  and  _416
REMARK  164  A    between atoms: _415  and  _418
REMARK  165  A    between atoms: _418  and  _419
REMARK  166  A    between atoms: _419  and  _420
REMARK  167  A    between atoms: _420  and  _421
REMARK  168  A    between atoms: _430  and  _432
REMARK  169  A    between atoms: _432  and  _433
REMARK  170  A    between atoms: _432  and  _435
REMARK  171  A    between atoms: _435  and  _436
REMARK  172  A    between atoms: _441  and  _443
REMARK  173  A    between atoms: _443  and  _444
REMARK  174  A    between atoms: _443  and  _446
REMARK  175  A    between atoms: _446  and  _447
REMARK  176  A    between atoms: _447  and  _448
REMARK  177  A    between atoms: _448  and  _449
REMARK  178  A    between atoms: _458  and  _460
REMARK  179  A    between atoms: _460  and  _461
REMARK  180  A    between atoms: _464  and  _466
REMARK  181  A    between atoms: _466  and  _467
REMARK  182  A    between atoms: _469  and  _471
REMARK  183  A    between atoms: _471  and  _472
REMARK  184  A    between atoms: _471  and  _474
REMARK  185  A    between atoms: _474  and  _475
REMARK  186  A    between atoms: _485  and  _487
REMARK  187  A    between atoms: _487  and  _488
REMARK  188  A    between atoms: _487  and  _490
REMARK  189  A    between atoms: _490  and  _491
REMARK  190  A    between atoms: _492  and  _494
REMARK  191  A    between atoms: _494  and  _495
REMARK  192  A    between atoms: _498  and  _500
REMARK  193  A    between atoms: _500  and  _501
REMARK  194  A    between atoms: _500  and  _503
REMARK  195  A    between atoms: _503  and  _504
REMARK  196  A    between atoms: _507  and  _509
REMARK  197  A    between atoms: _509  and  _510
REMARK  198  A    between atoms: _509  and  _512
REMARK  199  A    between atoms: _512  and  _513
REMARK  200  A    between atoms: _518  and  _519
REMARK  201  A    between atoms: _521  and  _523
REMARK  202  A    between atoms: _523  and  _524
REMARK  203  A    between atoms: _523  and  _526
REMARK  204  A    between atoms: _526  and  _527
REMARK  205  A    between atoms: _529  and  _531
REMARK  206  A    between atoms: _531  and  _532
REMARK  207  A    between atoms: _531  and  _534
REMARK  208  A    between atoms: _534  and  _535
REMARK  209  A    between atoms: _541  and  _543
REMARK  210  A    between atoms: _543  and  _544
REMARK  211  A    between atoms: _543  and  _546
REMARK  212  A    between atoms: _546  and  _547
REMARK  213  A    between atoms: _550  and  _552
REMARK  214  A    between atoms: _552  and  _553
REMARK  215  A    between atoms: _552  and  _555
REMARK  216  A    between atoms: _555  and  _556
REMARK  217  A    between atoms: _556  and  _557
REMARK  218  A    between atoms: _559  and  _561
REMARK  219  A    between atoms: _561  and  _562
REMARK  220  A    between atoms: _561  and  _564
REMARK  221  A    between atoms: _564  and  _565
REMARK  222  A    between atoms: _567  and  _569
REMARK  223  A    between atoms: _569  and  _570
REMARK  224  A    between atoms: _569  and  _572
REMARK  225  A    between atoms: _572  and  _573
REMARK  226  A    between atoms: _575  and  _577
REMARK  227  A    between atoms: _577  and  _578
REMARK  228  A    between atoms: _577  and  _580
REMARK  229  A    between atoms: _580  and  _581
REMARK  230  A    between atoms: _586  and  _588
REMARK  231  A    between atoms: _588  and  _589
REMARK  232  A    between atoms: _588  and  _591
REMARK  233  A    between atoms: _591  and  _592
REMARK  234  A    between atoms: _597  and  _599
REMARK  235  A    between atoms: _599  and  _600
REMARK  236  A    between atoms: _599  and  _602
REMARK  237  A    between atoms: _602  and  _603
REMARK  238  A    between atoms: _606  and  _608
REMARK  239  A    between atoms: _608  and  _609
REMARK  240  A    between atoms: _612  and  _614
REMARK  241  A    between atoms: _614  and  _615
REMARK  242  A    between atoms: _614  and  _617
REMARK  243  A    between atoms: _617  and  _618
REMARK  244  A    between atoms: _623  and  _625
REMARK  245  A    between atoms: _625  and  _626
REMARK  246  A    between atoms: _625  and  _628
REMARK  247  A    between atoms: _628  and  _629
REMARK  248  A    between atoms: _632  and  _634
REMARK  249  A    between atoms: _634  and  _635
REMARK  250  A    between atoms: _634  and  _637
REMARK  251  A    between atoms: _637  and  _638
REMARK  252  A    between atoms: _643  and  _644
REMARK  253  A    between atoms: _646  and  _648
REMARK  254  A    between atoms: _648  and  _649
REMARK  255  A    between atoms: _648  and  _651
REMARK  256  A    between atoms: _651  and  _652
REMARK  257  A    between atoms: _657  and  _658
REMARK  258  A    between atoms: _660  and  _662
REMARK  259  A    between atoms: _662  and  _663
REMARK  260  A    between atoms: _662  and  _665
REMARK  261  A    between atoms: _668  and  _670
REMARK  262  A    between atoms: _670  and  _671
REMARK  263  A    between atoms: _670  and  _673
REMARK  264  A    between atoms: _673  and  _674
REMARK  265  A    between atoms: _679  and  _681
REMARK  266  A    between atoms: _681  and  _682
REMARK  267  A    between atoms: _685  and  _687
REMARK  268  A    between atoms: _687  and  _688
REMARK  269  A    between atoms: _687  and  _690
REMARK  270  A    between atoms: _690  and  _691
REMARK  271  A    between atoms: _691  and  _692
REMARK  272  A    between atoms: _692  and  _693
REMARK  273  A    between atoms: _702  and  _704
REMARK  274  A    between atoms: _704  and  _705
REMARK  275  A    between atoms: _704  and  _707
REMARK  276  A    between atoms: _707  and  _708
REMARK  277  A    between atoms: _711  and  _713
REMARK  278  A    between atoms: _713  and  _714
REMARK  279  A    between atoms: _713  and  _716
REMARK  280  A    between atoms: _716  and  _717
REMARK  281  A    between atoms: _720  and  _722
REMARK  282  A    between atoms: _722  and  _723
REMARK  283  A    between atoms: _722  and  _725
REMARK  284  A    between atoms: _725  and  _726
REMARK                            x       y       z     vdW  Elec       q    Type
REMARK                         _______ _______ _______ _____ _____    ______ ____
ROOT
ATOM      1  CG  TYR A   1      -7.705  13.054  22.335  0.00  0.00    -0.020 A 
ATOM      2  CD2 TYR A   1      -8.422  14.198  22.649  0.00  0.00    -0.001 A 
ATOM      3  CE2 TYR A   1      -8.628  15.211  21.715  0.00  0.00    +0.036 A 
ATOM      4  CZ  TYR A   1      -8.113  15.072  20.449  0.00  0.00    +0.134 A 
ATOM      5  CE1 TYR A   1      -7.379  13.959  20.112  0.00  0.00    +0.036 A 
ATOM      6  CD1 TYR A   1      -7.185  12.969  21.065  0.00  0.00    -0.001 A 
ENDROOT
BRANCH   4   7
ATOM      7  OH  TYR A   1      -8.312  16.060  19.500  0.00  0.00    -0.506 OA
ATOM      8  HH  TYR A   1      -7.875  15.795  18.652  0.00  0.00    +0.292 HD
ENDBRANCH   4   7
BRANCH   1   9
ATOM      9  CB  TYR A   1      -7.485  11.984  23.381  0.00  0.00    +0.051 C 
BRANCH   9  10
ATOM     10  CA  TYR A   1      -6.105  11.815  24.008  0.00  0.00    +0.137 C 
BRANCH  10  11
ATOM     11  N   TYR A   1      -5.704  12.969  24.829  0.00  0.00    -0.239 NA
ATOM     12  H   TYR A   1      -5.052  13.685  24.451  0.00  0.00    +0.142 HD
ENDBRANCH  10  11
BRANCH  10  13
ATOM     13  C   TYR A   1      -5.058  11.528  22.936  0.00  0.00    +0.224 C 
ATOM     14  O   TYR A   1      -4.287  12.428  22.608  0.00  0.00    -0.287 OA
ENDBRANCH  10  13
ENDBRANCH   9  10
ENDBRANCH   1   9
TORSDOF 5
REMARK  Name = ../refined-set-2016/1b0h/1b0h_pocket.pdb
REMARK  284 active torsions:
REMARK  status: ('A' for Active; 'I' for Inactive)
REMARK    1  A    between atoms: _1  and  _3
REMARK    2  A    between atoms: _3  and  _4
REMARK    3  A    between atoms: _3  and  _6
REMARK    4  A    between atoms: _6  and  _7
REMARK    5  A    between atoms: _12  and  _14
REMARK    6  A    between atoms: _14  and  _15
REMARK    7  A    between atoms: _17  and  _19
REMARK    8  A    between atoms: _19  and  _20
REMARK    9  A    between atoms: _19  and  _22
REMARK   10  A    between atoms: _22  and  _23
REMARK   11  A    between atoms: _25  and  _27
REMARK   12  A    between atoms: _27  and  _28
REMARK   13  A    between atoms: _27  and  _30
REMARK   14  A    between atoms: _30  and  _31
REMARK   15  A    between atoms: _31  and  _32
REMARK   16  A    between atoms: _37  and  _39
REMARK   17  A    between atoms: _39  and  _40
REMARK   18  A    between atoms: _39  and  _42
REMARK   19  A    between atoms: _42  and  _43
REMARK   20  A    between atoms: _46  and  _48
REMARK   21  A    between atoms: _48  and  _49
REMARK   22  A    between atoms: _48  and  _51
REMARK   23  A    between atoms: _51  and  _52
REMARK   24  A    between atoms: _52  and  _53
REMARK   25  A    between atoms: _56  and  _58
REMARK   26  A    between atoms: _58  and  _59
REMARK   27  A    between atoms: _61  and  _63
REMARK   28  A    between atoms: _63  and  _64
REMARK   29  A    between atoms: _63  and  _66
REMARK   30  A    between atoms: _70  and  _71
REMARK   31  A    between atoms: _76  and  _78
REMARK   32  A    between atoms: _78  and  _79
REMARK   33  A    between atoms: _78  and  _81
REMARK   34  A    between atoms: _81  and  _82
REMARK   35  A    between atoms: _82  and  _83
REMARK   36  A    between atoms: _86  and  _88
REMARK   37  A    between atoms: _88  and  _89
REMARK   38  A    between atoms: _88  and  _91
REMARK   39  A    between atoms: _91  and  _92
REMARK   40  A    between atoms: _94  and  _96
REMARK   41  A    between atoms: _96  and  _97
REMARK   42  A    between atoms: _96  and  _99
REMARK   43  A    between atoms: _99  and  _100
REMARK   44  A    between atoms: _105  and  _107
REMARK   45  A    between atoms: _107  and  _108
REMARK   46  A    between atoms: _107  and  _110
REMARK   47  A    between atoms: _110  and  _111
REMARK   48  A    between atoms: _111  and  _112
REMARK   49  A    between atoms: _112  and  _113
REMARK   50  A    between atoms: _123  and  _124
REMARK   51  A    between atoms: _129  and  _131
REMARK   52  A    between atoms: _131  and  _132
REMARK   53  A    between atoms: _131  and  _134
REMARK   54  A    between atoms: _134  and  _135
REMARK   55  A    between atoms: _140  and  _141
REMARK   56  A    between atoms: _143  and  _145
REMARK   57  A    between atoms: _145  and  _146
REMARK   58  A    between atoms: _145  and  _148
REMARK   59  A    between atoms: _148  and  _149
REMARK   60  A    between atoms: _154  and  _155
REMARK   61  A    between atoms: _157  and  _159
REMARK   62  A    between atoms: _159  and  _160
REMARK   63  A    between atoms: _159  and  _162
REMARK   64  A    between atoms: _165  and  _167
REMARK   65  A    between atoms: _167  and  _168
REMARK   66  A    between atoms: _167  and  _170
REMARK   67  A    between atoms: _170  and  _171
REMARK   68  A    between atoms: _177  and  _178
REMARK   69  A    between atoms: _183  and  _185
REMARK   70  A    between atoms: _185  and  _186
REMARK   71  A    between atoms: _185  and  _188
REMARK   72  A    between atoms: _188  and  _189
REMARK   73  A    between atoms: _191  and  _193
REMARK   74  A    between atoms: _193  and  _194
REMARK   75  A    between atoms: _193  and  _196
REMARK   76  A    between atoms: _196  and  _197
REMARK   77  A    between atoms: _197  and  _198
REMARK   78  A    between atoms: _201  and  _203
REMARK   79  A    between atoms: _203  and  _204
REMARK   80  A    between atoms: _203  and  _206
REMARK   81  A    between atoms: _206  and  _207
REMARK   82  A    between atoms: _212  and  _213
REMARK   83  A    between atoms: _215  and  _217
REMARK   84  A    between atoms: _217  and  _218
REMARK   85  A    between atoms: _217  and  _220
REMARK   86  A    between atoms: _220  and  _221
REMARK   87  A    between atoms: _226  and  _228
REMARK   88  A    between atoms: _228  and  _229
REMARK   89  A    between atoms: _228  and  _231
REMARK   90  A    between atoms: _231  and  _232
REMARK   91  A    between atoms: _237  and  _239
REMARK   92  A    between atoms: _239  and  _240
REMARK   93  A    between atoms: _239  and  _242
REMARK   94  A    between atoms: _242  and  _243
REMARK   95  A    between atoms: _243  and  _244
REMARK   96  A    between atoms: _246  and  _248
REMARK   97  A    between atoms: _248  and  _249
REMARK   98  A    between atoms: _248  and  _251
REMARK   99  A    between atoms: _251  and  _252
REMARK  100  A    between atoms: _257  and  _258
REMARK  101  A    between atoms: _260  and  _262
REMARK  102  A    between atoms: _262  and  _263
REMARK  103  A    between atoms: _262  and  _265
REMARK  104  A    between atoms: _265  and  _266
REMARK  105  A    between atoms: _269  and  _271
REMARK  106  A    between atoms: _271  and  _272
REMARK  107  A    between atoms: _271  and  _274
REMARK  108  A    between atoms: _274  and  _275
REMARK  109  A    between atoms: _275  and  _491
REMARK  110  A    between atoms: _276  and  _278
REMARK  111  A    between atoms: _278  and  _279
REMARK  112  A    between atoms: _278  and  _281
REMARK  113  A    between atoms: _281  and  _282
REMARK  114  A    between atoms: _285  and  _287
REMARK  115  A    between atoms: _287  and  _288
REMARK  116  A    between atoms: _287  and  _290
REMARK  117  A    between atoms: _290  and  _291
REMARK  118  A    between atoms: _296  and  _297
REMARK  119  A    between atoms: _299  and  _301
REMARK  120  A    between atoms: _301  and  _302
REMARK  121  A    between atoms: _301  and  _304
REMARK  122  A    between atoms: _304  and  _305
REMARK  123  A    between atoms: _310  and  _311
REMARK  124  A    between atoms: _313  and  _315
REMARK  125  A    between atoms: _315  and  _316
REMARK  126  A    between atoms: _315  and  _318
REMARK  127  A    between atoms: _318  and  _319
REMARK  128  A    between atoms: _319  and  _320
REMARK  129  A    between atoms: _323  and  _325
REMARK  130  A    between atoms: _325  and  _326
REMARK  131  A    between atoms: _325  and  _328
REMARK  132  A    between atoms: _328  and  _329
REMARK  133  A    between atoms: _334  and  _335
REMARK  134  A    between atoms: _337  and  _339
REMARK  135  A    between atoms: _339  and  _340
REMARK  136  A    between atoms: _339  and  _342
REMARK  137  A    between atoms: _342  and  _343
REMARK  138  A    between atoms: _348  and  _350
REMARK  139  A    between atoms: _350  and  _351
REMARK  140  A    between atoms: _350  and  _353
REMARK  141  A    between atoms: _353  and  _354
REMARK  142  A    between atoms: _356  and  _358
REMARK  143  A    between atoms: _358  and  _359
REMARK  144  A    between atoms: _358  and  _361
REMARK  145  A    between atoms: _361  and  _362
REMARK  146  A    between atoms: _365  and  _367
REMARK  147  A    between atoms: _367  and  _368
REMARK  148  A    between atoms: _367  and  _370
REMARK  149  A    between atoms: _370  and  _371
REMARK  150  A    between atoms: _376  and  _378
REMARK  151  A    between atoms: _378  and  _379
REMARK  152  A    between atoms: _378  and  _381
REMARK  153  A    between atoms: _381  and  _382
REMARK  154  A    between atoms: _392  and  _394
REMARK  155  A    between atoms: _394  and  _395
REMARK  156  A    between atoms: _394  and  _397
REMARK  157  A    between atoms: _397  and  _398
REMARK  158  A    between atoms: _404  and  _406
REMARK  159  A    between atoms: _406  and  _407
REMARK  160  A    between atoms: _406  and  _409
REMARK  161  A    between atoms: _409  and  _410
REMARK  162  A    between atoms: _413  and  _415
REMARK  163  A    between atoms: _415  and  _416
REMARK  164  A    between atoms: _415  and  _418
REMARK  165  A    between atoms: _418  and  _419
REMARK  166  A    between atoms: _419  and  _420
REMARK  167  A    between atoms: _420  and  _421
REMARK  168  A    between atoms: _430  and  _432
REMARK  169  A    between atoms: _432  and  _433
REMARK  170  A    between atoms: _432  and  _435
REMARK  171  A    between atoms: _435  and  _436
REMARK  172  A    between atoms: _441  and  _443
REMARK  173  A    between atoms: _443  and  _444
REMARK  174  A    between atoms: _443  and  _446
REMARK  175  A    between atoms: _446  and  _447
REMARK  176  A    between atoms: _447  and  _448
REMARK  177  A    between atoms: _448  and  _449
REMARK  178  A    between atoms: _458  and  _460
REMARK  179  A    between atoms: _460  and  _461
REMARK  180  A    between atoms: _464  and  _466
REMARK  181  A    between atoms: _466  and  _467
REMARK  182  A    between atoms: _469  and  _471
REMARK  183  A    between atoms: _471  and  _472
REMARK  184  A    between atoms: _471  and  _474
REMARK  185  A    between atoms: _474  and  _475
REMARK  186  A    between atoms: _485  and  _487
REMARK  187  A    between atoms: _487  and  _488
REMARK  188  A    between atoms: _487  and  _490
REMARK  189  A    between atoms: _490  and  _491
REMARK  190  A    between atoms: _492  and  _494
REMARK  191  A    between atoms: _494  and  _495
REMARK  192  A    between atoms: _498  and  _500
REMARK  193  A    between atoms: _500  and  _501
REMARK  194  A    between atoms: _500  and  _503
REMARK  195  A    between atoms: _503  and  _504
REMARK  196  A    between atoms: _507  and  _509
REMARK  197  A    between atoms: _509  and  _510
REMARK  198  A    between atoms: _509  and  _512
REMARK  199  A    between atoms: _512  and  _513
REMARK  200  A    between atoms: _518  and  _519
REMARK  201  A    between atoms: _521  and  _523
REMARK  202  A    between atoms: _523  and  _524
REMARK  203  A    between atoms: _523  and  _526
REMARK  204  A    between atoms: _526  and  _527
REMARK  205  A    between atoms: _529  and  _531
REMARK  206  A    between atoms: _531  and  _532
REMARK  207  A    between atoms: _531  and  _534
REMARK  208  A    between atoms: _534  and  _535
REMARK  209  A    between atoms: _541  and  _543
REMARK  210  A    between atoms: _543  and  _544
REMARK  211  A    between atoms: _543  and  _546
REMARK  212  A    between atoms: _546  and  _547
REMARK  213  A    between atoms: _550  and  _552
REMARK  214  A    between atoms: _552  and  _553
REMARK  215  A    between atoms: _552  and  _555
REMARK  216  A    between atoms: _555  and  _556
REMARK  217  A    between atoms: _556  and  _557
REMARK  218  A    between atoms: _559  and  _561
REMARK  219  A    between atoms: _561  and  _562
REMARK  220  A    between atoms: _561  and  _564
REMARK  221  A    between atoms: _564  and  _565
REMARK  222  A    between atoms: _567  and  _569
REMARK  223  A    between atoms: _569  and  _570
REMARK  224  A    between atoms: _569  and  _572
REMARK  225  A    between atoms: _572  and  _573
REMARK  226  A    between atoms: _575  and  _577
REMARK  227  A    between atoms: _577  and  _578
REMARK  228  A    between atoms: _577  and  _580
REMARK  229  A    between atoms: _580  and  _581
REMARK  230  A    between atoms: _586  and  _588
REMARK  231  A    between atoms: _588  and  _589
REMARK  232  A    between atoms: _588  and  _591
REMARK  233  A    between atoms: _591  and  _592
REMARK  234  A    between atoms: _597  and  _599
REMARK  235  A    between atoms: _599  and  _600
REMARK  236  A    between atoms: _599  and  _602
REMARK  237  A    between atoms: _602  and  _603
REMARK  238  A    between atoms: _606  and  _608
REMARK  239  A    between atoms: _608  and  _609
REMARK  240  A    between atoms: _612  and  _614
REMARK  241  A    between atoms: _614  and  _615
REMARK  242  A    between atoms: _614  and  _617
REMARK  243  A    between atoms: _617  and  _618
REMARK  244  A    between atoms: _623  and  _625
REMARK  245  A    between atoms: _625  and  _626
REMARK  246  A    between atoms: _625  and  _628
REMARK  247  A    between atoms: _628  and  _629
REMARK  248  A    between atoms: _632  and  _634
REMARK  249  A    between atoms: _634  and  _635
REMARK  250  A    between atoms: _634  and  _637
REMARK  251  A    between atoms: _637  and  _638
REMARK  252  A    between atoms: _643  and  _644
REMARK  253  A    between atoms: _646  and  _648
REMARK  254  A    between atoms: _648  and  _649
REMARK  255  A    between atoms: _648  and  _651
REMARK  256  A    between atoms: _651  and  _652
REMARK  257  A    between atoms: _657  and  _658
REMARK  258  A    between atoms: _660  and  _662
REMARK  259  A    between atoms: _662  and  _663
REMARK  260  A    between atoms: _662  and  _665
REMARK  261  A    between atoms: _668  and  _670
REMARK  262  A    between atoms: _670  and  _671
REMARK  263  A    between atoms: _670  and  _673
REMARK  264  A    between atoms: _673  and  _674
REMARK  265  A    between atoms: _679  and  _681
REMARK  266  A    between atoms: _681  and  _682
REMARK  267  A    between atoms: _685  and  _687
REMARK  268  A    between atoms: _687  and  _688
REMARK  269  A    between atoms: _687  and  _690
REMARK  270  A    between atoms: _690  and  _691
REMARK  271  A    between atoms: _691  and  _692
REMARK  272  A    between atoms: _692  and  _693
REMARK  273  A    between atoms: _702  and  _704
REMARK  274  A    between atoms: _704  and  _705
REMARK  275  A    between atoms: _704  and  _707
REMARK  276  A    between atoms: _707  and  _708
REMARK  277  A    between atoms: _711  and  _713
REMARK  278  A    between atoms: _713  and  _714
REMARK  279  A    between atoms: _713  and  _716
REMARK  280  A    between atoms: _716  and  _717
REMARK  281  A    between atoms: _720  and  _722
REMARK  282  A    between atoms: _722  and  _723
REMARK  283  A    between atoms: _722  and  _725
REMARK  284  A    between atoms: _725  and  _726
REMARK                            x       y       z     vdW  Elec       q    Type
REMARK                         _______ _______ _______ _____ _____    ______ ____
ROOT
ATOM      1  CA  ASN A   3      -5.986  10.599  11.536  0.00  0.00    +0.158 C 
ENDROOT
BRANCH   1   2
ATOM      2  C   ASN A   3      -7.291  10.571  10.742  0.00  0.00    +0.241 C 
ATOM      3  N   ALA A   4      -8.157  11.518  11.068  0.00  0.00    -0.297 N 
ATOM      4  H   ALA A   4      -7.874  12.210  11.791  0.00  0.00    +0.150 HD
ATOM      5  O   ASN A   3      -7.537   9.663   9.937  0.00  0.00    -0.273 OA
BRANCH   3   6
ATOM      6  CA  ALA A   4      -9.480  11.650  10.477  0.00  0.00    +0.149 C 
ATOM      7  CB  ALA A   4     -10.429  11.882  11.662  0.00  0.00    +0.031 C 
BRANCH   6   8
ATOM      8  C   ALA A   4      -9.579  12.806   9.487  0.00  0.00    +0.241 C 
ATOM      9  O   ALA A   4      -9.314  13.961   9.839  0.00  0.00    -0.273 OA
ATOM     10  N   ARG A   5      -9.939  12.538   8.249  0.00  0.00    -0.298 N 
ATOM     11  H   ARG A   5     -10.153  11.556   7.983  0.00  0.00    +0.150 HD
BRANCH  10  12
ATOM     12  CA  ARG A   5     -10.045  13.592   7.240  0.00  0.00    +0.137 C 
BRANCH  12  13
ATOM     13  C   ARG A   5     -10.990  13.125   6.146  0.00  0.00    +0.227 C 
ATOM     14  O   ARG A   5     -11.242  11.910   6.020  0.00  0.00    -0.286 OA
ENDBRANCH  12  13
BRANCH  12  15
ATOM     15  CB  ARG A   5      -8.657  13.907   6.635  0.00  0.00    +0.031 C 
BRANCH  15  16
ATOM     16  CG  ARG A   5      -7.998  12.638   6.089  0.00  0.00    +0.045 C 
BRANCH  16  17
ATOM     17  CD  ARG A   5      -6.976  12.932   5.001  0.00  0.00    +0.174 C 
BRANCH  17  18
ATOM     18  NE  ARG A   5      -6.020  13.990   5.217  0.00  0.00    -0.265 N 
ATOM     19  CZ  ARG A   5      -4.763  13.892   5.630  0.00  0.00    +0.342 C 
ATOM     20  NH2 ARG A   5      -4.202  12.730   5.908  0.00  0.00    -0.292 N 
ATOM     21 HH21 ARG A   5      -3.214  12.693   6.229  0.00  0.00    +0.255 HD
ATOM     22 HH22 ARG A   5      -4.748  11.851   5.806  0.00  0.00    +0.255 HD
ATOM     23  NH1 ARG A   5      -4.017  14.977   5.765  0.00  0.00    -0.292 N 
ATOM     24 HH11 ARG A   5      -3.032  14.894   6.089  0.00  0.00    +0.255 HD
ATOM     25 HH12 ARG A   5      -4.416  15.913   5.547  0.00  0.00    +0.255 HD
ATOM     26  HE  ARG A   5      -6.360  14.954   5.024  0.00  0.00    +0.259 HD
ENDBRANCH  17  18
ENDBRANCH  16  17
ENDBRANCH  15  16
ENDBRANCH  12  15
ENDBRANCH  10  12
ENDBRANCH   6   8
ENDBRANCH   3   6
ENDBRANCH   1   2
BRANCH   1  29
ATOM     27  C   VAL A   2      -6.519  10.309  13.863  0.00  0.00    +0.241 C 
ATOM     28  O   VAL A   2      -6.745  11.520  14.003  0.00  0.00    -0.273 OA
ATOM     29  N   ASN A   3      -6.135   9.758  12.715  0.00  0.00    -0.297 N 
ATOM     30  H   ASN A   3      -5.943   8.737  12.660  0.00  0.00    +0.150 HD
BRANCH  27  31
ATOM     31  CA  VAL A   2      -6.691   9.362  15.061  0.00  0.00    +0.148 C 
BRANCH  31  34
ATOM     32  C   TYR A   1      -5.401  10.082  17.000  0.00  0.00    +0.239 C 
ATOM     33  O   TYR A   1      -4.672   9.110  17.018  0.00  0.00    -0.274 OA
ATOM     34  N   VAL A   2      -6.465  10.221  16.200  0.00  0.00    -0.297 N 
ATOM     35  H   VAL A   2      -7.153  10.974  16.406  0.00  0.00    +0.150 HD
BRANCH  32  36
ATOM     36  CA  TYR A   1      -5.195  11.278  17.930  0.00  0.00    +0.149 C 
BRANCH  36  37
ATOM     37  N   TYR A   1      -4.412  10.930  19.097  0.00  0.00    -0.238 NA
ATOM     38  H   TYR A   1      -3.419  11.229  19.181  0.00  0.00    +0.142 HD
ENDBRANCH  36  37
BRANCH  36  39
ATOM     39  CB  TYR A   1      -4.480  12.295  17.071  0.00  0.00    +0.053 C 
BRANCH  39  40
ATOM     40  CG  TYR A   1      -4.212  13.714  17.392  0.00  0.00    -0.020 A 
ATOM     41  CD2 TYR A   1      -3.323  14.109  18.383  0.00  0.00    -0.001 A 
ATOM     42  CE2 TYR A   1      -3.070  15.454  18.599  0.00  0.00    +0.036 A 
ATOM     43  CZ  TYR A   1      -3.695  16.409  17.829  0.00  0.00    +0.134 A 
ATOM     44  CE1 TYR A   1      -4.585  16.057  16.843  0.00  0.00    +0.036 A 
ATOM     45  CD1 TYR A   1      -4.824  14.713  16.629  0.00  0.00    -0.001 A 
BRANCH  43  46
ATOM     46  OH  TYR A   1      -3.386  17.732  18.066  0.00  0.00    -0.506 OA
ATOM     47  HH  TYR A   1      -2.995  18.130  17.248  0.00  0.00    +0.292 HD
ENDBRANCH  43  46
ENDBRANCH  39  40
ENDBRANCH  36  39
ENDBRANCH  32  36
ENDBRANCH  31  34
BRANCH  31  48
ATOM     48  CB  VAL A   2      -8.038   8.644  14.887  0.00  0.00    +0.027 C 
ATOM     49  CG2 VAL A   2      -8.172   7.518  15.935  0.00  0.00    +0.002 C 
ATOM     50  CG1 VAL A   2      -9.207   9.601  14.979  0.00  0.00    +0.002 C 
ENDBRANCH  31  48
ENDBRANCH  27  31
ENDBRANCH   1  29
BRANCH   1  51
ATOM     51  CB  ASN A   3      -4.790  10.090  10.728  0.00  0.00    +0.114 C 
BRANCH  51  52
ATOM     52  CG  ASN A   3      -4.584  10.854   9.433  0.00  0.00    +0.222 C 
ATOM     53  OD1 ASN A   3      -5.286  11.800   9.087  0.00  0.00    -0.275 OA
ATOM     54  ND2 ASN A   3      -3.635  10.424   8.624  0.00  0.00    -0.329 N 
ATOM     55 HD21 ASN A   3      -3.034   9.623   8.906  0.00  0.00    +0.145 HD
ATOM     56 HD22 ASN A   3      -3.488  10.886   7.704  0.00  0.00    +0.145 HD
ENDBRANCH  51  52
ENDBRANCH   1  51
TORSDOF 20
REMARK  Name = ../refined-set-2016/1b0h/1b0h_pocket.pdb
REMARK  284 active torsions:
REMARK  status: ('A' for Active; 'I' for Inactive)
REMARK    1  A    between atoms: _1  and  _3
REMARK    2  A    between atoms: _3  and  _4
REMARK    3  A    between atoms: _3  and  _6
REMARK    4  A    between atoms: _6  and  _7
REMARK    5  A    between atoms: _12  and  _14
REMARK    6  A    between atoms: _14  and  _15
REMARK    7  A    between atoms: _17  and  _19
REMARK    8  A    between atoms: _19  and  _20
REMARK    9  A    between atoms: _19  and  _22
REMARK   10  A    between atoms: _22  and  _23
REMARK   11  A    between atoms: _25  and  _27
REMARK   12  A    between atoms: _27  and  _28
REMARK   13  A    between atoms: _27  and  _30
REMARK   14  A    between atoms: _30  and  _31
REMARK   15  A    between atoms: _31  and  _32
REMARK   16  A    between atoms: _37  and  _39
REMARK   17  A    between atoms: _39  and  _40
REMARK   18  A    between atoms: _39  and  _42
REMARK   19  A    between atoms: _42  and  _43
REMARK   20  A    between atoms: _46  and  _48
REMARK   21  A    between atoms: _48  and  _49
REMARK   22  A    between atoms: _48  and  _51
REMARK   23  A    between atoms: _51  and  _52
REMARK   24  A    between atoms: _52  and  _53
REMARK   25  A    between atoms: _56  and  _58
REMARK   26  A    between atoms: _58  and  _59
REMARK   27  A    between atoms: _61  and  _63
REMARK   28  A    between atoms: _63  and  _64
REMARK   29  A    between atoms: _63  and  _66
REMARK   30  A    between atoms: _70  and  _71
REMARK   31  A    between atoms: _76  and  _78
REMARK   32  A    between atoms: _78  and  _79
REMARK   33  A    between atoms: _78  and  _81
REMARK   34  A    between atoms: _81  and  _82
REMARK   35  A    between atoms: _82  and  _83
REMARK   36  A    between atoms: _86  and  _88
REMARK   37  A    between atoms: _88  and  _89
REMARK   38  A    between atoms: _88  and  _91
REMARK   39  A    between atoms: _91  and  _92
REMARK   40  A    between atoms: _94  and  _96
REMARK   41  A    between atoms: _96  and  _97
REMARK   42  A    between atoms: _96  and  _99
REMARK   43  A    between atoms: _99  and  _100
REMARK   44  A    between atoms: _105  and  _107
REMARK   45  A    between atoms: _107  and  _108
REMARK   46  A    between atoms: _107  and  _110
REMARK   47  A    between atoms: _110  and  _111
REMARK   48  A    between atoms: _111  and  _112
REMARK   49  A    between atoms: _112  and  _113
REMARK   50  A    between atoms: _123  and  _124
REMARK   51  A    between atoms: _129  and  _131
REMARK   52  A    between atoms: _131  and  _132
REMARK   53  A    between atoms: _131  and  _134
REMARK   54  A    between atoms: _134  and  _135
REMARK   55  A    between atoms: _140  and  _141
REMARK   56  A    between atoms: _143  and  _145
REMARK   57  A    between atoms: _145  and  _146
REMARK   58  A    between atoms: _145  and  _148
REMARK   59  A    between atoms: _148  and  _149
REMARK   60  A    between atoms: _154  and  _155
REMARK   61  A    between atoms: _157  and  _159
REMARK   62  A    between atoms: _159  and  _160
REMARK   63  A    between atoms: _159  and  _162
REMARK   64  A    between atoms: _165  and  _167
REMARK   65  A    between atoms: _167  and  _168
REMARK   66  A    between atoms: _167  and  _170
REMARK   67  A    between atoms: _170  and  _171
REMARK   68  A    between atoms: _177  and  _178
REMARK   69  A    between atoms: _183  and  _185
REMARK   70  A    between atoms: _185  and  _186
REMARK   71  A    between atoms: _185  and  _188
REMARK   72  A    between atoms: _188  and  _189
REMARK   73  A    between atoms: _191  and  _193
REMARK   74  A    between atoms: _193  and  _194
REMARK   75  A    between atoms: _193  and  _196
REMARK   76  A    between atoms: _196  and  _197
REMARK   77  A    between atoms: _197  and  _198
REMARK   78  A    between atoms: _201  and  _203
REMARK   79  A    between atoms: _203  and  _204
REMARK   80  A    between atoms: _203  and  _206
REMARK   81  A    between atoms: _206  and  _207
REMARK   82  A    between atoms: _212  and  _213
REMARK   83  A    between atoms: _215  and  _217
REMARK   84  A    between atoms: _217  and  _218
REMARK   85  A    between atoms: _217  and  _220
REMARK   86  A    between atoms: _220  and  _221
REMARK   87  A    between atoms: _226  and  _228
REMARK   88  A    between atoms: _228  and  _229
REMARK   89  A    between atoms: _228  and  _231
REMARK   90  A    between atoms: _231  and  _232
REMARK   91  A    between atoms: _237  and  _239
REMARK   92  A    between atoms: _239  and  _240
REMARK   93  A    between atoms: _239  and  _242
REMARK   94  A    between atoms: _242  and  _243
REMARK   95  A    between atoms: _243  and  _244
REMARK   96  A    between atoms: _246  and  _248
REMARK   97  A    between atoms: _248  and  _249
REMARK   98  A    between atoms: _248  and  _251
REMARK   99  A    between atoms: _251  and  _252
REMARK  100  A    between atoms: _257  and  _258
REMARK  101  A    between atoms: _260  and  _262
REMARK  102  A    between atoms: _262  and  _263
REMARK  103  A    between atoms: _262  and  _265
REMARK  104  A    between atoms: _265  and  _266
REMARK  105  A    between atoms: _269  and  _271
REMARK  106  A    between atoms: _271  and  _272
REMARK  107  A    between atoms: _271  and  _274
REMARK  108  A    between atoms: _274  and  _275
REMARK  109  A    between atoms: _275  and  _491
REMARK  110  A    between atoms: _276  and  _278
REMARK  111  A    between atoms: _278  and  _279
REMARK  112  A    between atoms: _278  and  _281
REMARK  113  A    between atoms: _281  and  _282
REMARK  114  A    between atoms: _285  and  _287
REMARK  115  A    between atoms: _287  and  _288
REMARK  116  A    between atoms: _287  and  _290
REMARK  117  A    between atoms: _290  and  _291
REMARK  118  A    between atoms: _296  and  _297
REMARK  119  A    between atoms: _299  and  _301
REMARK  120  A    between atoms: _301  and  _302
REMARK  121  A    between atoms: _301  and  _304
REMARK  122  A    between atoms: _304  and  _305
REMARK  123  A    between atoms: _310  and  _311
REMARK  124  A    between atoms: _313  and  _315
REMARK  125  A    between atoms: _315  and  _316
REMARK  126  A    between atoms: _315  and  _318
REMARK  127  A    between atoms: _318  and  _319
REMARK  128  A    between atoms: _319  and  _320
REMARK  129  A    between atoms: _323  and  _325
REMARK  130  A    between atoms: _325  and  _326
REMARK  131  A    between atoms: _325  and  _328
REMARK  132  A    between atoms: _328  and  _329
REMARK  133  A    between atoms: _334  and  _335
REMARK  134  A    between atoms: _337  and  _339
REMARK  135  A    between atoms: _339  and  _340
REMARK  136  A    between atoms: _339  and  _342
REMARK  137  A    between atoms: _342  and  _343
REMARK  138  A    between atoms: _348  and  _350
REMARK  139  A    between atoms: _350  and  _351
REMARK  140  A    between atoms: _350  and  _353
REMARK  141  A    between atoms: _353  and  _354
REMARK  142  A    between atoms: _356  and  _358
REMARK  143  A    between atoms: _358  and  _359
REMARK  144  A    between atoms: _358  and  _361
REMARK  145  A    between atoms: _361  and  _362
REMARK  146  A    between atoms: _365  and  _367
REMARK  147  A    between atoms: _367  and  _368
REMARK  148  A    between atoms: _367  and  _370
REMARK  149  A    between atoms: _370  and  _371
REMARK  150  A    between atoms: _376  and  _378
REMARK  151  A    between atoms: _378  and  _379
REMARK  152  A    between atoms: _378  and  _381
REMARK  153  A    between atoms: _381  and  _382
REMARK  154  A    between atoms: _392  and  _394
REMARK  155  A    between atoms: _394  and  _395
REMARK  156  A    between atoms: _394  and  _397
REMARK  157  A    between atoms: _397  and  _398
REMARK  158  A    between atoms: _404  and  _406
REMARK  159  A    between atoms: _406  and  _407
REMARK  160  A    between atoms: _406  and  _409
REMARK  161  A    between atoms: _409  and  _410
REMARK  162  A    between atoms: _413  and  _415
REMARK  163  A    between atoms: _415  and  _416
REMARK  164  A    between atoms: _415  and  _418
REMARK  165  A    between atoms: _418  and  _419
REMARK  166  A    between atoms: _419  and  _420
REMARK  167  A    between atoms: _420  and  _421
REMARK  168  A    between atoms: _430  and  _432
REMARK  169  A    between atoms: _432  and  _433
REMARK  170  A    between atoms: _432  and  _435
REMARK  171  A    between atoms: _435  and  _436
REMARK  172  A    between atoms: _441  and  _443
REMARK  173  A    between atoms: _443  and  _444
REMARK  174  A    between atoms: _443  and  _446
REMARK  175  A    between atoms: _446  and  _447
REMARK  176  A    between atoms: _447  and  _448
REMARK  177  A    between atoms: _448  and  _449
REMARK  178  A    between atoms: _458  and  _460
REMARK  179  A    between atoms: _460  and  _461
REMARK  180  A    between atoms: _464  and  _466
REMARK  181  A    between atoms: _466  and  _467
REMARK  182  A    between atoms: _469  and  _471
REMARK  183  A    between atoms: _471  and  _472
REMARK  184  A    between atoms: _471  and  _474
REMARK  185  A    between atoms: _474  and  _475
REMARK  186  A    between atoms: _485  and  _487
REMARK  187  A    between atoms: _487  and  _488
REMARK  188  A    between atoms: _487  and  _490
REMARK  189  A    between atoms: _490  and  _491
REMARK  190  A    between atoms: _492  and  _494
REMARK  191  A    between atoms: _494  and  _495
REMARK  192  A    between atoms: _498  and  _500
REMARK  193  A    between atoms: _500  and  _501
REMARK  194  A    between atoms: _500  and  _503
REMARK  195  A    between atoms: _503  and  _504
REMARK  196  A    between atoms: _507  and  _509
REMARK  197  A    between atoms: _509  and  _510
REMARK  198  A    between atoms: _509  and  _512
REMARK  199  A    between atoms: _512  and  _513
REMARK  200  A    between atoms: _518  and  _519
REMARK  201  A    between atoms: _521  and  _523
REMARK  202  A    between atoms: _523  and  _524
REMARK  203  A    between atoms: _523  and  _526
REMARK  204  A    between atoms: _526  and  _527
REMARK  205  A    between atoms: _529  and  _531
REMARK  206  A    between atoms: _531  and  _532
REMARK  207  A    between atoms: _531  and  _534
REMARK  208  A    between atoms: _534  and  _535
REMARK  209  A    between atoms: _541  and  _543
REMARK  210  A    between atoms: _543  and  _544
REMARK  211  A    between atoms: _543  and  _546
REMARK  212  A    between atoms: _546  and  _547
REMARK  213  A    between atoms: _550  and  _552
REMARK  214  A    between atoms: _552  and  _553
REMARK  215  A    between atoms: _552  and  _555
REMARK  216  A    between atoms: _555  and  _556
REMARK  217  A    between atoms: _556  and  _557
REMARK  218  A    between atoms: _559  and  _561
REMARK  219  A    between atoms: _561  and  _562
REMARK  220  A    between atoms: _561  and  _564
REMARK  221  A    between atoms: _564  and  _565
REMARK  222  A    between atoms: _567  and  _569
REMARK  223  A    between atoms: _569  and  _570
REMARK  224  A    between atoms: _569  and  _572
REMARK  225  A    between atoms: _572  and  _573
REMARK  226  A    between atoms: _575  and  _577
REMARK  227  A    between atoms: _577  and  _578
REMARK  228  A    between atoms: _577  and  _580
REMARK  229  A    between atoms: _580  and  _581
REMARK  230  A    between atoms: _586  and  _588
REMARK  231  A    between atoms: _588  and  _589
REMARK  232  A    between atoms: _588  and  _591
REMARK  233  A    between atoms: _591  and  _592
REMARK  234  A    between atoms: _597  and  _599
REMARK  235  A    between atoms: _599  and  _600
REMARK  236  A    between atoms: _599  and  _602
REMARK  237  A    between atoms: _602  and  _603
REMARK  238  A    between atoms: _606  and  _608
REMARK  239  A    between atoms: _608  and  _609
REMARK  240  A    between atoms: _612  and  _614
REMARK  241  A    between atoms: _614  and  _615
REMARK  242  A    between atoms: _614  and  _617
REMARK  243  A    between atoms: _617  and  _618
REMARK  244  A    between atoms: _623  and  _625
REMARK  245  A    between atoms: _625  and  _626
REMARK  246  A    between atoms: _625  and  _628
REMARK  247  A    between atoms: _628  and  _629
REMARK  248  A    between atoms: _632  and  _634
REMARK  249  A    between atoms: _634  and  _635
REMARK  250  A    between atoms: _634  and  _637
REMARK  251  A    between atoms: _637  and  _638
REMARK  252  A    between atoms: _643  and  _644
REMARK  253  A    between atoms: _646  and  _648
REMARK  254  A    between atoms: _648  and  _649
REMARK  255  A    between atoms: _648  and  _651
REMARK  256  A    between atoms: _651  and  _652
REMARK  257  A    between atoms: _657  and  _658
REMARK  258  A    between atoms: _660  and  _662
REMARK  259  A    between atoms: _662  and  _663
REMARK  260  A    between atoms: _662  and  _665
REMARK  261  A    between atoms: _668  and  _670
REMARK  262  A    between atoms: _670  and  _671
REMARK  263  A    between atoms: _670  and  _673
REMARK  264  A    between atoms: _673  and  _674
REMARK  265  A    between atoms: _679  and  _681
REMARK  266  A    between atoms: _681  and  _682
REMARK  267  A    between atoms: _685  and  _687
REMARK  268  A    between atoms: _687  and  _688
REMARK  269  A    between atoms: _687  and  _690
REMARK  270  A    between atoms: _690  and  _691
REMARK  271  A    between atoms: _691  and  _692
REMARK  272  A    between atoms: _692  and  _693
REMARK  273  A    between atoms: _702  and  _704
REMARK  274  A    between atoms: _704  and  _705
REMARK  275  A    between atoms: _704  and  _707
REMARK  276  A    between atoms: _707  and  _708
REMARK  277  A    between atoms: _711  and  _713
REMARK  278  A    between atoms: _713  and  _714
REMARK  279  A    between atoms: _713  and  _716
REMARK  280  A    between atoms: _716  and  _717
REMARK  281  A    between atoms: _720  and  _722
REMARK  282  A    between atoms: _722  and  _723
REMARK  283  A    between atoms: _722  and  _725
REMARK  284  A    between atoms: _725  and  _726
REMARK                            x       y       z     vdW  Elec       q    Type
REMARK                         _______ _______ _______ _____ _____    ______ ____
ROOT
ATOM      1  CA  ASP A   2       0.862  10.709   7.679  0.00  0.00    +0.160 C 
ENDROOT
BRANCH   1   4
ATOM      2  C   LEU A   1       2.403  10.350   9.557  0.00  0.00    +0.238 C 
ATOM      3  O   LEU A   1       2.725  11.535   9.578  0.00  0.00    -0.274 OA
ATOM      4  N   ASP A   2       1.547   9.859   8.672  0.00  0.00    -0.297 N 
ATOM      5  H   ASP A   2       1.351   8.838   8.678  0.00  0.00    +0.150 HD
BRANCH   2   6
ATOM      6  CA  LEU A   1       3.098   9.410  10.539  0.00  0.00    +0.145 C 
BRANCH   6   7
ATOM      7  N   LEU A   1       2.519   8.079  10.512  0.00  0.00    -0.238 NA
ATOM      8  H   LEU A   1       2.880   7.385   9.827  0.00  0.00    +0.142 HD
ENDBRANCH   6   7
BRANCH   6   9
ATOM      9  CB  LEU A   1       4.607   9.425  10.268  0.00  0.00    +0.026 C 
BRANCH   9  10
ATOM     10  CG  LEU A   1       5.457   8.489  11.147  0.00  0.00    +0.002 C 
ATOM     11  CD2 LEU A   1       5.122   8.753  12.592  0.00  0.00    +0.000 C 
ATOM     12  CD1 LEU A   1       6.950   8.649  10.895  0.00  0.00    +0.000 C 
ENDBRANCH   9  10
ENDBRANCH   6   9
ENDBRANCH   2   6
ENDBRANCH   1   4
BRANCH   1  13
ATOM     13  C   ASP A   2       1.833  11.522   6.831  0.00  0.00    +0.241 C 
ATOM     14  O   ASP A   2       1.595  12.711   6.538  0.00  0.00    -0.273 OA
ATOM     15  N   ASN A   3       2.924  10.895   6.380  0.00  0.00    -0.298 N 
ATOM     16  H   ASN A   3       3.069   9.894   6.621  0.00  0.00    +0.150 HD
BRANCH  15  17
ATOM     17  CA  ASN A   3       3.924  11.584   5.552  0.00  0.00    +0.146 C 
BRANCH  17  18
ATOM     18  C   ASN A   3       3.467  11.532   4.101  0.00  0.00    +0.227 C 
ATOM     19  O   ASN A   3       4.054  10.855   3.271  0.00  0.00    -0.286 OA
ENDBRANCH  17  18
BRANCH  17  20
ATOM     20  CB  ASN A   3       5.318  10.992   5.725  0.00  0.00    +0.112 C 
BRANCH  20  21
ATOM     21  CG  ASN A   3       6.028  11.439   6.983  0.00  0.00    +0.222 C 
ATOM     22  ND2 ASN A   3       6.781  10.546   7.622  0.00  0.00    -0.329 N 
ATOM     23 HD21 ASN A   3       7.282  10.816   8.492  0.00  0.00    +0.145 HD
ATOM     24 HD22 ASN A   3       6.868   9.578   7.251  0.00  0.00    +0.145 HD
ATOM     25  OD1 ASN A   3       5.923  12.581   7.418  0.00  0.00    -0.275 OA
ENDBRANCH  20  21
ENDBRANCH  17  20
ENDBRANCH  15  17
ENDBRANCH   1  13
BRANCH   1  26
ATOM     26  CB  ASP A   2      -0.190  11.621   8.319  0.00  0.00    +0.143 C 
BRANCH  26  27
ATOM     27  CG  ASP A   2      -1.237  12.042   7.299  0.00  0.00    +0.367 C 
ATOM     28  OD2 ASP A   2      -1.621  13.208   7.248  0.00  0.00    -0.246 OA
ATOM     29  OD1 ASP A   2      -1.659  11.234   6.461  0.00  0.00    -0.246 OA
ENDBRANCH  26  27
ENDBRANCH   1  26
TORSDOF 12
REMARK  Name = ../refined-set-2016/1b0h/1b0h_pocket.pdb
REMARK  284 active torsions:
REMARK  status: ('A' for Active; 'I' for Inactive)
REMARK    1  A    between atoms: _1  and  _3
REMARK    2  A    between atoms: _3  and  _4
REMARK    3  A    between atoms: _3  and  _6
REMARK    4  A    between atoms: _6  and  _7
REMARK    5  A    between atoms: _12  and  _14
REMARK    6  A    between atoms: _14  and  _15
REMARK    7  A    between atoms: _17  and  _19
REMARK    8  A    between atoms: _19  and  _20
REMARK    9  A    between atoms: _19  and  _22
REMARK   10  A    between atoms: _22  and  _23
REMARK   11  A    between atoms: _25  and  _27
REMARK   12  A    between atoms: _27  and  _28
REMARK   13  A    between atoms: _27  and  _30
REMARK   14  A    between atoms: _30  and  _31
REMARK   15  A    between atoms: _31  and  _32
REMARK   16  A    between atoms: _37  and  _39
REMARK   17  A    between atoms: _39  and  _40
REMARK   18  A    between atoms: _39  and  _42
REMARK   19  A    between atoms: _42  and  _43
REMARK   20  A    between atoms: _46  and  _48
REMARK   21  A    between atoms: _48  and  _49
REMARK   22  A    between atoms: _48  and  _51
REMARK   23  A    between atoms: _51  and  _52
REMARK   24  A    between atoms: _52  and  _53
REMARK   25  A    between atoms: _56  and  _58
REMARK   26  A    between atoms: _58  and  _59
REMARK   27  A    between atoms: _61  and  _63
REMARK   28  A    between atoms: _63  and  _64
REMARK   29  A    between atoms: _63  and  _66
REMARK   30  A    between atoms: _70  and  _71
REMARK   31  A    between atoms: _76  and  _78
REMARK   32  A    between atoms: _78  and  _79
REMARK   33  A    between atoms: _78  and  _81
REMARK   34  A    between atoms: _81  and  _82
REMARK   35  A    between atoms: _82  and  _83
REMARK   36  A    between atoms: _86  and  _88
REMARK   37  A    between atoms: _88  and  _89
REMARK   38  A    between atoms: _88  and  _91
REMARK   39  A    between atoms: _91  and  _92
REMARK   40  A    between atoms: _94  and  _96
REMARK   41  A    between atoms: _96  and  _97
REMARK   42  A    between atoms: _96  and  _99
REMARK   43  A    between atoms: _99  and  _100
REMARK   44  A    between atoms: _105  and  _107
REMARK   45  A    between atoms: _107  and  _108
REMARK   46  A    between atoms: _107  and  _110
REMARK   47  A    between atoms: _110  and  _111
REMARK   48  A    between atoms: _111  and  _112
REMARK   49  A    between atoms: _112  and  _113
REMARK   50  A    between atoms: _123  and  _124
REMARK   51  A    between atoms: _129  and  _131
REMARK   52  A    between atoms: _131  and  _132
REMARK   53  A    between atoms: _131  and  _134
REMARK   54  A    between atoms: _134  and  _135
REMARK   55  A    between atoms: _140  and  _141
REMARK   56  A    between atoms: _143  and  _145
REMARK   57  A    between atoms: _145  and  _146
REMARK   58  A    between atoms: _145  and  _148
REMARK   59  A    between atoms: _148  and  _149
REMARK   60  A    between atoms: _154  and  _155
REMARK   61  A    between atoms: _157  and  _159
REMARK   62  A    between atoms: _159  and  _160
REMARK   63  A    between atoms: _159  and  _162
REMARK   64  A    between atoms: _165  and  _167
REMARK   65  A    between atoms: _167  and  _168
REMARK   66  A    between atoms: _167  and  _170
REMARK   67  A    between atoms: _170  and  _171
REMARK   68  A    between atoms: _177  and  _178
REMARK   69  A    between atoms: _183  and  _185
REMARK   70  A    between atoms: _185  and  _186
REMARK   71  A    between atoms: _185  and  _188
REMARK   72  A    between atoms: _188  and  _189
REMARK   73  A    between atoms: _191  and  _193
REMARK   74  A    between atoms: _193  and  _194
REMARK   75  A    between atoms: _193  and  _196
REMARK   76  A    between atoms: _196  and  _197
REMARK   77  A    between atoms: _197  and  _198
REMARK   78  A    between atoms: _201  and  _203
REMARK   79  A    between atoms: _203  and  _204
REMARK   80  A    between atoms: _203  and  _206
REMARK   81  A    between atoms: _206  and  _207
REMARK   82  A    between atoms: _212  and  _213
REMARK   83  A    between atoms: _215  and  _217
REMARK   84  A    between atoms: _217  and  _218
REMARK   85  A    between atoms: _217  and  _220
REMARK   86  A    between atoms: _220  and  _221
REMARK   87  A    between atoms: _226  and  _228
REMARK   88  A    between atoms: _228  and  _229
REMARK   89  A    between atoms: _228  and  _231
REMARK   90  A    between atoms: _231  and  _232
REMARK   91  A    between atoms: _237  and  _239
REMARK   92  A    between atoms: _239  and  _240
REMARK   93  A    between atoms: _239  and  _242
REMARK   94  A    between atoms: _242  and  _243
REMARK   95  A    between atoms: _243  and  _244
REMARK   96  A    between atoms: _246  and  _248
REMARK   97  A    between atoms: _248  and  _249
REMARK   98  A    between atoms: _248  and  _251
REMARK   99  A    between atoms: _251  and  _252
REMARK  100  A    between atoms: _257  and  _258
REMARK  101  A    between atoms: _260  and  _262
REMARK  102  A    between atoms: _262  and  _263
REMARK  103  A    between atoms: _262  and  _265
REMARK  104  A    between atoms: _265  and  _266
REMARK  105  A    between atoms: _269  and  _271
REMARK  106  A    between atoms: _271  and  _272
REMARK  107  A    between atoms: _271  and  _274
REMARK  108  A    between atoms: _274  and  _275
REMARK  109  A    between atoms: _275  and  _491
REMARK  110  A    between atoms: _276  and  _278
REMARK  111  A    between atoms: _278  and  _279
REMARK  112  A    between atoms: _278  and  _281
REMARK  113  A    between atoms: _281  and  _282
REMARK  114  A    between atoms: _285  and  _287
REMARK  115  A    between atoms: _287  and  _288
REMARK  116  A    between atoms: _287  and  _290
REMARK  117  A    between atoms: _290  and  _291
REMARK  118  A    between atoms: _296  and  _297
REMARK  119  A    between atoms: _299  and  _301
REMARK  120  A    between atoms: _301  and  _302
REMARK  121  A    between atoms: _301  and  _304
REMARK  122  A    between atoms: _304  and  _305
REMARK  123  A    between atoms: _310  and  _311
REMARK  124  A    between atoms: _313  and  _315
REMARK  125  A    between atoms: _315  and  _316
REMARK  126  A    between atoms: _315  and  _318
REMARK  127  A    between atoms: _318  and  _319
REMARK  128  A    between atoms: _319  and  _320
REMARK  129  A    between atoms: _323  and  _325
REMARK  130  A    between atoms: _325  and  _326
REMARK  131  A    between atoms: _325  and  _328
REMARK  132  A    between atoms: _328  and  _329
REMARK  133  A    between atoms: _334  and  _335
REMARK  134  A    between atoms: _337  and  _339
REMARK  135  A    between atoms: _339  and  _340
REMARK  136  A    between atoms: _339  and  _342
REMARK  137  A    between atoms: _342  and  _343
REMARK  138  A    between atoms: _348  and  _350
REMARK  139  A    between atoms: _350  and  _351
REMARK  140  A    between atoms: _350  and  _353
REMARK  141  A    between atoms: _353  and  _354
REMARK  142  A    between atoms: _356  and  _358
REMARK  143  A    between atoms: _358  and  _359
REMARK  144  A    between atoms: _358  and  _361
REMARK  145  A    between atoms: _361  and  _362
REMARK  146  A    between atoms: _365  and  _367
REMARK  147  A    between atoms: _367  and  _368
REMARK  148  A    between atoms: _367  and  _370
REMARK  149  A    between atoms: _370  and  _371
REMARK  150  A    between atoms: _376  and  _378
REMARK  151  A    between atoms: _378  and  _379
REMARK  152  A    between atoms: _378  and  _381
REMARK  153  A    between atoms: _381  and  _382
REMARK  154  A    between atoms: _392  and  _394
REMARK  155  A    between atoms: _394  and  _395
REMARK  156  A    between atoms: _394  and  _397
REMARK  157  A    between atoms: _397  and  _398
REMARK  158  A    between atoms: _404  and  _406
REMARK  159  A    between atoms: _406  and  _407
REMARK  160  A    between atoms: _406  and  _409
REMARK  161  A    between atoms: _409  and  _410
REMARK  162  A    between atoms: _413  and  _415
REMARK  163  A    between atoms: _415  and  _416
REMARK  164  A    between atoms: _415  and  _418
REMARK  165  A    between atoms: _418  and  _419
REMARK  166  A    between atoms: _419  and  _420
REMARK  167  A    between atoms: _420  and  _421
REMARK  168  A    between atoms: _430  and  _432
REMARK  169  A    between atoms: _432  and  _433
REMARK  170  A    between atoms: _432  and  _435
REMARK  171  A    between atoms: _435  and  _436
REMARK  172  A    between atoms: _441  and  _443
REMARK  173  A    between atoms: _443  and  _444
REMARK  174  A    between atoms: _443  and  _446
REMARK  175  A    between atoms: _446  and  _447
REMARK  176  A    between atoms: _447  and  _448
REMARK  177  A    between atoms: _448  and  _449
REMARK  178  A    between atoms: _458  and  _460
REMARK  179  A    between atoms: _460  and  _461
REMARK  180  A    between atoms: _464  and  _466
REMARK  181  A    between atoms: _466  and  _467
REMARK  182  A    between atoms: _469  and  _471
REMARK  183  A    between atoms: _471  and  _472
REMARK  184  A    between atoms: _471  and  _474
REMARK  185  A    between atoms: _474  and  _475
REMARK  186  A    between atoms: _485  and  _487
REMARK  187  A    between atoms: _487  and  _488
REMARK  188  A    between atoms: _487  and  _490
REMARK  189  A    between atoms: _490  and  _491
REMARK  190  A    between atoms: _492  and  _494
REMARK  191  A    between atoms: _494  and  _495
REMARK  192  A    between atoms: _498  and  _500
REMARK  193  A    between atoms: _500  and  _501
REMARK  194  A    between atoms: _500  and  _503
REMARK  195  A    between atoms: _503  and  _504
REMARK  196  A    between atoms: _507  and  _509
REMARK  197  A    between atoms: _509  and  _510
REMARK  198  A    between atoms: _509  and  _512
REMARK  199  A    between atoms: _512  and  _513
REMARK  200  A    between atoms: _518  and  _519
REMARK  201  A    between atoms: _521  and  _523
REMARK  202  A    between atoms: _523  and  _524
REMARK  203  A    between atoms: _523  and  _526
REMARK  204  A    between atoms: _526  and  _527
REMARK  205  A    between atoms: _529  and  _531
REMARK  206  A    between atoms: _531  and  _532
REMARK  207  A    between atoms: _531  and  _534
REMARK  208  A    between atoms: _534  and  _535
REMARK  209  A    between atoms: _541  and  _543
REMARK  210  A    between atoms: _543  and  _544
REMARK  211  A    between atoms: _543  and  _546
REMARK  212  A    between atoms: _546  and  _547
REMARK  213  A    between atoms: _550  and  _552
REMARK  214  A    between atoms: _552  and  _553
REMARK  215  A    between atoms: _552  and  _555
REMARK  216  A    between atoms: _555  and  _556
REMARK  217  A    between atoms: _556  and  _557
REMARK  218  A    between atoms: _559  and  _561
REMARK  219  A    between atoms: _561  and  _562
REMARK  220  A    between atoms: _561  and  _564
REMARK  221  A    between atoms: _564  and  _565
REMARK  222  A    between atoms: _567  and  _569
REMARK  223  A    between atoms: _569  and  _570
REMARK  224  A    between atoms: _569  and  _572
REMARK  225  A    between atoms: _572  and  _573
REMARK  226  A    between atoms: _575  and  _577
REMARK  227  A    between atoms: _577  and  _578
REMARK  228  A    between atoms: _577  and  _580
REMARK  229  A    between atoms: _580  and  _581
REMARK  230  A    between atoms: _586  and  _588
REMARK  231  A    between atoms: _588  and  _589
REMARK  232  A    between atoms: _588  and  _591
REMARK  233  A    between atoms: _591  and  _592
REMARK  234  A    between atoms: _597  and  _599
REMARK  235  A    between atoms: _599  and  _600
REMARK  236  A    between atoms: _599  and  _602
REMARK  237  A    between atoms: _602  and  _603
REMARK  238  A    between atoms: _606  and  _608
REMARK  239  A    between atoms: _608  and  _609
REMARK  240  A    between atoms: _612  and  _614
REMARK  241  A    between atoms: _614  and  _615
REMARK  242  A    between atoms: _614  and  _617
REMARK  243  A    between atoms: _617  and  _618
REMARK  244  A    between atoms: _623  and  _625
REMARK  245  A    between atoms: _625  and  _626
REMARK  246  A    between atoms: _625  and  _628
REMARK  247  A    between atoms: _628  and  _629
REMARK  248  A    between atoms: _632  and  _634
REMARK  249  A    between atoms: _634  and  _635
REMARK  250  A    between atoms: _634  and  _637
REMARK  251  A    between atoms: _637  and  _638
REMARK  252  A    between atoms: _643  and  _644
REMARK  253  A    between atoms: _646  and  _648
REMARK  254  A    between atoms: _648  and  _649
REMARK  255  A    between atoms: _648  and  _651
REMARK  256  A    between atoms: _651  and  _652
REMARK  257  A    between atoms: _657  and  _658
REMARK  258  A    between atoms: _660  and  _662
REMARK  259  A    between atoms: _662  and  _663
REMARK  260  A    between atoms: _662  and  _665
REMARK  261  A    between atoms: _668  and  _670
REMARK  262  A    between atoms: _670  and  _671
REMARK  263  A    between atoms: _670  and  _673
REMARK  264  A    between atoms: _673  and  _674
REMARK  265  A    between atoms: _679  and  _681
REMARK  266  A    between atoms: _681  and  _682
REMARK  267  A    between atoms: _685  and  _687
REMARK  268  A    between atoms: _687  and  _688
REMARK  269  A    between atoms: _687  and  _690
REMARK  270  A    between atoms: _690  and  _691
REMARK  271  A    between atoms: _691  and  _692
REMARK  272  A    between atoms: _692  and  _693
REMARK  273  A    between atoms: _702  and  _704
REMARK  274  A    between atoms: _704  and  _705
REMARK  275  A    between atoms: _704  and  _707
REMARK  276  A    between atoms: _707  and  _708
REMARK  277  A    between atoms: _711  and  _713
REMARK  278  A    between atoms: _713  and  _714
REMARK  279  A    between atoms: _713  and  _716
REMARK  280  A    between atoms: _716  and  _717
REMARK  281  A    between atoms: _720  and  _722
REMARK  282  A    between atoms: _722  and  _723
REMARK  283  A    between atoms: _722  and  _725
REMARK  284  A    between atoms: _725  and  _726
REMARK                            x       y       z     vdW  Elec       q    Type
REMARK                         _______ _______ _______ _____ _____    ______ ____
ROOT
ATOM      1  O   HOH     1      10.867  23.265  18.125  0.00  0.00    +0.000 OA
ENDROOT
TORSDOF 0
REMARK  Name = ../refined-set-2016/1b0h/1b0h_pocket.pdb
REMARK  284 active torsions:
REMARK  status: ('A' for Active; 'I' for Inactive)
REMARK    1  A    between atoms: _1  and  _3
REMARK    2  A    between atoms: _3  and  _4
REMARK    3  A    between atoms: _3  and  _6
REMARK    4  A    between atoms: _6  and  _7
REMARK    5  A    between atoms: _12  and  _14
REMARK    6  A    between atoms: _14  and  _15
REMARK    7  A    between atoms: _17  and  _19
REMARK    8  A    between atoms: _19  and  _20
REMARK    9  A    between atoms: _19  and  _22
REMARK   10  A    between atoms: _22  and  _23
REMARK   11  A    between atoms: _25  and  _27
REMARK   12  A    between atoms: _27  and  _28
REMARK   13  A    between atoms: _27  and  _30
REMARK   14  A    between atoms: _30  and  _31
REMARK   15  A    between atoms: _31  and  _32
REMARK   16  A    between atoms: _37  and  _39
REMARK   17  A    between atoms: _39  and  _40
REMARK   18  A    between atoms: _39  and  _42
REMARK   19  A    between atoms: _42  and  _43
REMARK   20  A    between atoms: _46  and  _48
REMARK   21  A    between atoms: _48  and  _49
REMARK   22  A    between atoms: _48  and  _51
REMARK   23  A    between atoms: _51  and  _52
REMARK   24  A    between atoms: _52  and  _53
REMARK   25  A    between atoms: _56  and  _58
REMARK   26  A    between atoms: _58  and  _59
REMARK   27  A    between atoms: _61  and  _63
REMARK   28  A    between atoms: _63  and  _64
REMARK   29  A    between atoms: _63  and  _66
REMARK   30  A    between atoms: _70  and  _71
REMARK   31  A    between atoms: _76  and  _78
REMARK   32  A    between atoms: _78  and  _79
REMARK   33  A    between atoms: _78  and  _81
REMARK   34  A    between atoms: _81  and  _82
REMARK   35  A    between atoms: _82  and  _83
REMARK   36  A    between atoms: _86  and  _88
REMARK   37  A    between atoms: _88  and  _89
REMARK   38  A    between atoms: _88  and  _91
REMARK   39  A    between atoms: _91  and  _92
REMARK   40  A    between atoms: _94  and  _96
REMARK   41  A    between atoms: _96  and  _97
REMARK   42  A    between atoms: _96  and  _99
REMARK   43  A    between atoms: _99  and  _100
REMARK   44  A    between atoms: _105  and  _107
REMARK   45  A    between atoms: _107  and  _108
REMARK   46  A    between atoms: _107  and  _110
REMARK   47  A    between atoms: _110  and  _111
REMARK   48  A    between atoms: _111  and  _112
REMARK   49  A    between atoms: _112  and  _113
REMARK   50  A    between atoms: _123  and  _124
REMARK   51  A    between atoms: _129  and  _131
REMARK   52  A    between atoms: _131  and  _132
REMARK   53  A    between atoms: _131  and  _134
REMARK   54  A    between atoms: _134  and  _135
REMARK   55  A    between atoms: _140  and  _141
REMARK   56  A    between atoms: _143  and  _145
REMARK   57  A    between atoms: _145  and  _146
REMARK   58  A    between atoms: _145  and  _148
REMARK   59  A    between atoms: _148  and  _149
REMARK   60  A    between atoms: _154  and  _155
REMARK   61  A    between atoms: _157  and  _159
REMARK   62  A    between atoms: _159  and  _160
REMARK   63  A    between atoms: _159  and  _162
REMARK   64  A    between atoms: _165  and  _167
REMARK   65  A    between atoms: _167  and  _168
REMARK   66  A    between atoms: _167  and  _170
REMARK   67  A    between atoms: _170  and  _171
REMARK   68  A    between atoms: _177  and  _178
REMARK   69  A    between atoms: _183  and  _185
REMARK   70  A    between atoms: _185  and  _186
REMARK   71  A    between atoms: _185  and  _188
REMARK   72  A    between atoms: _188  and  _189
REMARK   73  A    between atoms: _191  and  _193
REMARK   74  A    between atoms: _193  and  _194
REMARK   75  A    between atoms: _193  and  _196
REMARK   76  A    between atoms: _196  and  _197
REMARK   77  A    between atoms: _197  and  _198
REMARK   78  A    between atoms: _201  and  _203
REMARK   79  A    between atoms: _203  and  _204
REMARK   80  A    between atoms: _203  and  _206
REMARK   81  A    between atoms: _206  and  _207
REMARK   82  A    between atoms: _212  and  _213
REMARK   83  A    between atoms: _215  and  _217
REMARK   84  A    between atoms: _217  and  _218
REMARK   85  A    between atoms: _217  and  _220
REMARK   86  A    between atoms: _220  and  _221
REMARK   87  A    between atoms: _226  and  _228
REMARK   88  A    between atoms: _228  and  _229
REMARK   89  A    between atoms: _228  and  _231
REMARK   90  A    between atoms: _231  and  _232
REMARK   91  A    between atoms: _237  and  _239
REMARK   92  A    between atoms: _239  and  _240
REMARK   93  A    between atoms: _239  and  _242
REMARK   94  A    between atoms: _242  and  _243
REMARK   95  A    between atoms: _243  and  _244
REMARK   96  A    between atoms: _246  and  _248
REMARK   97  A    between atoms: _248  and  _249
REMARK   98  A    between atoms: _248  and  _251
REMARK   99  A    between atoms: _251  and  _252
REMARK  100  A    between atoms: _257  and  _258
REMARK  101  A    between atoms: _260  and  _262
REMARK  102  A    between atoms: _262  and  _263
REMARK  103  A    between atoms: _262  and  _265
REMARK  104  A    between atoms: _265  and  _266
REMARK  105  A    between atoms: _269  and  _271
REMARK  106  A    between atoms: _271  and  _272
REMARK  107  A    between atoms: _271  and  _274
REMARK  108  A    between atoms: _274  and  _275
REMARK  109  A    between atoms: _275  and  _491
REMARK  110  A    between atoms: _276  and  _278
REMARK  111  A    between atoms: _278  and  _279
REMARK  112  A    between atoms: _278  and  _281
REMARK  113  A    between atoms: _281  and  _282
REMARK  114  A    between atoms: _285  and  _287
REMARK  115  A    between atoms: _287  and  _288
REMARK  116  A    between atoms: _287  and  _290
REMARK  117  A    between atoms: _290  and  _291
REMARK  118  A    between atoms: _296  and  _297
REMARK  119  A    between atoms: _299  and  _301
REMARK  120  A    between atoms: _301  and  _302
REMARK  121  A    between atoms: _301  and  _304
REMARK  122  A    between atoms: _304  and  _305
REMARK  123  A    between atoms: _310  and  _311
REMARK  124  A    between atoms: _313  and  _315
REMARK  125  A    between atoms: _315  and  _316
REMARK  126  A    between atoms: _315  and  _318
REMARK  127  A    between atoms: _318  and  _319
REMARK  128  A    between atoms: _319  and  _320
REMARK  129  A    between atoms: _323  and  _325
REMARK  130  A    between atoms: _325  and  _326
REMARK  131  A    between atoms: _325  and  _328
REMARK  132  A    between atoms: _328  and  _329
REMARK  133  A    between atoms: _334  and  _335
REMARK  134  A    between atoms: _337  and  _339
REMARK  135  A    between atoms: _339  and  _340
REMARK  136  A    between atoms: _339  and  _342
REMARK  137  A    between atoms: _342  and  _343
REMARK  138  A    between atoms: _348  and  _350
REMARK  139  A    between atoms: _350  and  _351
REMARK  140  A    between atoms: _350  and  _353
REMARK  141  A    between atoms: _353  and  _354
REMARK  142  A    between atoms: _356  and  _358
REMARK  143  A    between atoms: _358  and  _359
REMARK  144  A    between atoms: _358  and  _361
REMARK  145  A    between atoms: _361  and  _362
REMARK  146  A    between atoms: _365  and  _367
REMARK  147  A    between atoms: _367  and  _368
REMARK  148  A    between atoms: _367  and  _370
REMARK  149  A    between atoms: _370  and  _371
REMARK  150  A    between atoms: _376  and  _378
REMARK  151  A    between atoms: _378  and  _379
REMARK  152  A    between atoms: _378  and  _381
REMARK  153  A    between atoms: _381  and  _382
REMARK  154  A    between atoms: _392  and  _394
REMARK  155  A    between atoms: _394  and  _395
REMARK  156  A    between atoms: _394  and  _397
REMARK  157  A    between atoms: _397  and  _398
REMARK  158  A    between atoms: _404  and  _406
REMARK  159  A    between atoms: _406  and  _407
REMARK  160  A    between atoms: _406  and  _409
REMARK  161  A    between atoms: _409  and  _410
REMARK  162  A    between atoms: _413  and  _415
REMARK  163  A    between atoms: _415  and  _416
REMARK  164  A    between atoms: _415  and  _418
REMARK  165  A    between atoms: _418  and  _419
REMARK  166  A    between atoms: _419  and  _420
REMARK  167  A    between atoms: _420  and  _421
REMARK  168  A    between atoms: _430  and  _432
REMARK  169  A    between atoms: _432  and  _433
REMARK  170  A    between atoms: _432  and  _435
REMARK  171  A    between atoms: _435  and  _436
REMARK  172  A    between atoms: _441  and  _443
REMARK  173  A    between atoms: _443  and  _444
REMARK  174  A    between atoms: _443  and  _446
REMARK  175  A    between atoms: _446  and  _447
REMARK  176  A    between atoms: _447  and  _448
REMARK  177  A    between atoms: _448  and  _449
REMARK  178  A    between atoms: _458  and  _460
REMARK  179  A    between atoms: _460  and  _461
REMARK  180  A    between atoms: _464  and  _466
REMARK  181  A    between atoms: _466  and  _467
REMARK  182  A    between atoms: _469  and  _471
REMARK  183  A    between atoms: _471  and  _472
REMARK  184  A    between atoms: _471  and  _474
REMARK  185  A    between atoms: _474  and  _475
REMARK  186  A    between atoms: _485  and  _487
REMARK  187  A    between atoms: _487  and  _488
REMARK  188  A    between atoms: _487  and  _490
REMARK  189  A    between atoms: _490  and  _491
REMARK  190  A    between atoms: _492  and  _494
REMARK  191  A    between atoms: _494  and  _495
REMARK  192  A    between atoms: _498  and  _500
REMARK  193  A    between atoms: _500  and  _501
REMARK  194  A    between atoms: _500  and  _503
REMARK  195  A    between atoms: _503  and  _504
REMARK  196  A    between atoms: _507  and  _509
REMARK  197  A    between atoms: _509  and  _510
REMARK  198  A    between atoms: _509  and  _512
REMARK  199  A    between atoms: _512  and  _513
REMARK  200  A    between atoms: _518  and  _519
REMARK  201  A    between atoms: _521  and  _523
REMARK  202  A    between atoms: _523  and  _524
REMARK  203  A    between atoms: _523  and  _526
REMARK  204  A    between atoms: _526  and  _527
REMARK  205  A    between atoms: _529  and  _531
REMARK  206  A    between atoms: _531  and  _532
REMARK  207  A    between atoms: _531  and  _534
REMARK  208  A    between atoms: _534  and  _535
REMARK  209  A    between atoms: _541  and  _543
REMARK  210  A    between atoms: _543  and  _544
REMARK  211  A    between atoms: _543  and  _546
REMARK  212  A    between atoms: _546  and  _547
REMARK  213  A    between atoms: _550  and  _552
REMARK  214  A    between atoms: _552  and  _553
REMARK  215  A    between atoms: _552  and  _555
REMARK  216  A    between atoms: _555  and  _556
REMARK  217  A    between atoms: _556  and  _557
REMARK  218  A    between atoms: _559  and  _561
REMARK  219  A    between atoms: _561  and  _562
REMARK  220  A    between atoms: _561  and  _564
REMARK  221  A    between atoms: _564  and  _565
REMARK  222  A    between atoms: _567  and  _569
REMARK  223  A    between atoms: _569  and  _570
REMARK  224  A    between atoms: _569  and  _572
REMARK  225  A    between atoms: _572  and  _573
REMARK  226  A    between atoms: _575  and  _577
REMARK  227  A    between atoms: _577  and  _578
REMARK  228  A    between atoms: _577  and  _580
REMARK  229  A    between atoms: _580  and  _581
REMARK  230  A    between atoms: _586  and  _588
REMARK  231  A    between atoms: _588  and  _589
REMARK  232  A    between atoms: _588  and  _591
REMARK  233  A    between atoms: _591  and  _592
REMARK  234  A    between atoms: _597  and  _599
REMARK  235  A    between atoms: _599  and  _600
REMARK  236  A    between atoms: _599  and  _602
REMARK  237  A    between atoms: _602  and  _603
REMARK  238  A    between atoms: _606  and  _608
REMARK  239  A    between atoms: _608  and  _609
REMARK  240  A    between atoms: _612  and  _614
REMARK  241  A    between atoms: _614  and  _615
REMARK  242  A    between atoms: _614  and  _617
REMARK  243  A    between atoms: _617  and  _618
REMARK  244  A    between atoms: _623  and  _625
REMARK  245  A    between atoms: _625  and  _626
REMARK  246  A    between atoms: _625  and  _628
REMARK  247  A    between atoms: _628  and  _629
REMARK  248  A    between atoms: _632  and  _634
REMARK  249  A    between atoms: _634  and  _635
REMARK  250  A    between atoms: _634  and  _637
REMARK  251  A    between atoms: _637  and  _638
REMARK  252  A    between atoms: _643  and  _644
REMARK  253  A    between atoms: _646  and  _648
REMARK  254  A    between atoms: _648  and  _649
REMARK  255  A    between atoms: _648  and  _651
REMARK  256  A    between atoms: _651  and  _652
REMARK  257  A    between atoms: _657  and  _658
REMARK  258  A    between atoms: _660  and  _662
REMARK  259  A    between atoms: _662  and  _663
REMARK  260  A    between atoms: _662  and  _665
REMARK  261  A    between atoms: _668  and  _670
REMARK  262  A    between atoms: _670  and  _671
REMARK  263  A    between atoms: _670  and  _673
REMARK  264  A    between atoms: _673  and  _674
REMARK  265  A    between atoms: _679  and  _681
REMARK  266  A    between atoms: _681  and  _682
REMARK  267  A    between atoms: _685  and  _687
REMARK  268  A    between atoms: _687  and  _688
REMARK  269  A    between atoms: _687  and  _690
REMARK  270  A    between atoms: _690  and  _691
REMARK  271  A    between atoms: _691  and  _692
REMARK  272  A    between atoms: _692  and  _693
REMARK  273  A    between atoms: _702  and  _704
REMARK  274  A    between atoms: _704  and  _705
REMARK  275  A    between atoms: _704  and  _707
REMARK  276  A    between atoms: _707  and  _708
REMARK  277  A    between atoms: _711  and  _713
REMARK  278  A    between atoms: _713  and  _714
REMARK  279  A    between atoms: _713  and  _716
REMARK  280  A    between atoms: _716  and  _717
REMARK  281  A    between atoms: _720  and  _722
REMARK  282  A    between atoms: _722  and  _723
REMARK  283  A    between atoms: _722  and  _725
REMARK  284  A    between atoms: _725  and  _726
REMARK                            x       y       z     vdW  Elec       q    Type
REMARK                         _______ _______ _______ _____ _____    ______ ____
ROOT
ATOM      1  O   HOH     1       5.293  20.098  25.400  0.00  0.00    +0.000 OA
ENDROOT
TORSDOF 0
REMARK  Name = ../refined-set-2016/1b0h/1b0h_pocket.pdb
REMARK  284 active torsions:
REMARK  status: ('A' for Active; 'I' for Inactive)
REMARK    1  A    between atoms: _1  and  _3
REMARK    2  A    between atoms: _3  and  _4
REMARK    3  A    between atoms: _3  and  _6
REMARK    4  A    between atoms: _6  and  _7
REMARK    5  A    between atoms: _12  and  _14
REMARK    6  A    between atoms: _14  and  _15
REMARK    7  A    between atoms: _17  and  _19
REMARK    8  A    between atoms: _19  and  _20
REMARK    9  A    between atoms: _19  and  _22
REMARK   10  A    between atoms: _22  and  _23
REMARK   11  A    between atoms: _25  and  _27
REMARK   12  A    between atoms: _27  and  _28
REMARK   13  A    between atoms: _27  and  _30
REMARK   14  A    between atoms: _30  and  _31
REMARK   15  A    between atoms: _31  and  _32
REMARK   16  A    between atoms: _37  and  _39
REMARK   17  A    between atoms: _39  and  _40
REMARK   18  A    between atoms: _39  and  _42
REMARK   19  A    between atoms: _42  and  _43
REMARK   20  A    between atoms: _46  and  _48
REMARK   21  A    between atoms: _48  and  _49
REMARK   22  A    between atoms: _48  and  _51
REMARK   23  A    between atoms: _51  and  _52
REMARK   24  A    between atoms: _52  and  _53
REMARK   25  A    between atoms: _56  and  _58
REMARK   26  A    between atoms: _58  and  _59
REMARK   27  A    between atoms: _61  and  _63
REMARK   28  A    between atoms: _63  and  _64
REMARK   29  A    between atoms: _63  and  _66
REMARK   30  A    between atoms: _70  and  _71
REMARK   31  A    between atoms: _76  and  _78
REMARK   32  A    between atoms: _78  and  _79
REMARK   33  A    between atoms: _78  and  _81
REMARK   34  A    between atoms: _81  and  _82
REMARK   35  A    between atoms: _82  and  _83
REMARK   36  A    between atoms: _86  and  _88
REMARK   37  A    between atoms: _88  and  _89
REMARK   38  A    between atoms: _88  and  _91
REMARK   39  A    between atoms: _91  and  _92
REMARK   40  A    between atoms: _94  and  _96
REMARK   41  A    between atoms: _96  and  _97
REMARK   42  A    between atoms: _96  and  _99
REMARK   43  A    between atoms: _99  and  _100
REMARK   44  A    between atoms: _105  and  _107
REMARK   45  A    between atoms: _107  and  _108
REMARK   46  A    between atoms: _107  and  _110
REMARK   47  A    between atoms: _110  and  _111
REMARK   48  A    between atoms: _111  and  _112
REMARK   49  A    between atoms: _112  and  _113
REMARK   50  A    between atoms: _123  and  _124
REMARK   51  A    between atoms: _129  and  _131
REMARK   52  A    between atoms: _131  and  _132
REMARK   53  A    between atoms: _131  and  _134
REMARK   54  A    between atoms: _134  and  _135
REMARK   55  A    between atoms: _140  and  _141
REMARK   56  A    between atoms: _143  and  _145
REMARK   57  A    between atoms: _145  and  _146
REMARK   58  A    between atoms: _145  and  _148
REMARK   59  A    between atoms: _148  and  _149
REMARK   60  A    between atoms: _154  and  _155
REMARK   61  A    between atoms: _157  and  _159
REMARK   62  A    between atoms: _159  and  _160
REMARK   63  A    between atoms: _159  and  _162
REMARK   64  A    between atoms: _165  and  _167
REMARK   65  A    between atoms: _167  and  _168
REMARK   66  A    between atoms: _167  and  _170
REMARK   67  A    between atoms: _170  and  _171
REMARK   68  A    between atoms: _177  and  _178
REMARK   69  A    between atoms: _183  and  _185
REMARK   70  A    between atoms: _185  and  _186
REMARK   71  A    between atoms: _185  and  _188
REMARK   72  A    between atoms: _188  and  _189
REMARK   73  A    between atoms: _191  and  _193
REMARK   74  A    between atoms: _193  and  _194
REMARK   75  A    between atoms: _193  and  _196
REMARK   76  A    between atoms: _196  and  _197
REMARK   77  A    between atoms: _197  and  _198
REMARK   78  A    between atoms: _201  and  _203
REMARK   79  A    between atoms: _203  and  _204
REMARK   80  A    between atoms: _203  and  _206
REMARK   81  A    between atoms: _206  and  _207
REMARK   82  A    between atoms: _212  and  _213
REMARK   83  A    between atoms: _215  and  _217
REMARK   84  A    between atoms: _217  and  _218
REMARK   85  A    between atoms: _217  and  _220
REMARK   86  A    between atoms: _220  and  _221
REMARK   87  A    between atoms: _226  and  _228
REMARK   88  A    between atoms: _228  and  _229
REMARK   89  A    between atoms: _228  and  _231
REMARK   90  A    between atoms: _231  and  _232
REMARK   91  A    between atoms: _237  and  _239
REMARK   92  A    between atoms: _239  and  _240
REMARK   93  A    between atoms: _239  and  _242
REMARK   94  A    between atoms: _242  and  _243
REMARK   95  A    between atoms: _243  and  _244
REMARK   96  A    between atoms: _246  and  _248
REMARK   97  A    between atoms: _248  and  _249
REMARK   98  A    between atoms: _248  and  _251
REMARK   99  A    between atoms: _251  and  _252
REMARK  100  A    between atoms: _257  and  _258
REMARK  101  A    between atoms: _260  and  _262
REMARK  102  A    between atoms: _262  and  _263
REMARK  103  A    between atoms: _262  and  _265
REMARK  104  A    between atoms: _265  and  _266
REMARK  105  A    between atoms: _269  and  _271
REMARK  106  A    between atoms: _271  and  _272
REMARK  107  A    between atoms: _271  and  _274
REMARK  108  A    between atoms: _274  and  _275
REMARK  109  A    between atoms: _275  and  _491
REMARK  110  A    between atoms: _276  and  _278
REMARK  111  A    between atoms: _278  and  _279
REMARK  112  A    between atoms: _278  and  _281
REMARK  113  A    between atoms: _281  and  _282
REMARK  114  A    between atoms: _285  and  _287
REMARK  115  A    between atoms: _287  and  _288
REMARK  116  A    between atoms: _287  and  _290
REMARK  117  A    between atoms: _290  and  _291
REMARK  118  A    between atoms: _296  and  _297
REMARK  119  A    between atoms: _299  and  _301
REMARK  120  A    between atoms: _301  and  _302
REMARK  121  A    between atoms: _301  and  _304
REMARK  122  A    between atoms: _304  and  _305
REMARK  123  A    between atoms: _310  and  _311
REMARK  124  A    between atoms: _313  and  _315
REMARK  125  A    between atoms: _315  and  _316
REMARK  126  A    between atoms: _315  and  _318
REMARK  127  A    between atoms: _318  and  _319
REMARK  128  A    between atoms: _319  and  _320
REMARK  129  A    between atoms: _323  and  _325
REMARK  130  A    between atoms: _325  and  _326
REMARK  131  A    between atoms: _325  and  _328
REMARK  132  A    between atoms: _328  and  _329
REMARK  133  A    between atoms: _334  and  _335
REMARK  134  A    between atoms: _337  and  _339
REMARK  135  A    between atoms: _339  and  _340
REMARK  136  A    between atoms: _339  and  _342
REMARK  137  A    between atoms: _342  and  _343
REMARK  138  A    between atoms: _348  and  _350
REMARK  139  A    between atoms: _350  and  _351
REMARK  140  A    between atoms: _350  and  _353
REMARK  141  A    between atoms: _353  and  _354
REMARK  142  A    between atoms: _356  and  _358
REMARK  143  A    between atoms: _358  and  _359
REMARK  144  A    between atoms: _358  and  _361
REMARK  145  A    between atoms: _361  and  _362
REMARK  146  A    between atoms: _365  and  _367
REMARK  147  A    between atoms: _367  and  _368
REMARK  148  A    between atoms: _367  and  _370
REMARK  149  A    between atoms: _370  and  _371
REMARK  150  A    between atoms: _376  and  _378
REMARK  151  A    between atoms: _378  and  _379
REMARK  152  A    between atoms: _378  and  _381
REMARK  153  A    between atoms: _381  and  _382
REMARK  154  A    between atoms: _392  and  _394
REMARK  155  A    between atoms: _394  and  _395
REMARK  156  A    between atoms: _394  and  _397
REMARK  157  A    between atoms: _397  and  _398
REMARK  158  A    between atoms: _404  and  _406
REMARK  159  A    between atoms: _406  and  _407
REMARK  160  A    between atoms: _406  and  _409
REMARK  161  A    between atoms: _409  and  _410
REMARK  162  A    between atoms: _413  and  _415
REMARK  163  A    between atoms: _415  and  _416
REMARK  164  A    between atoms: _415  and  _418
REMARK  165  A    between atoms: _418  and  _419
REMARK  166  A    between atoms: _419  and  _420
REMARK  167  A    between atoms: _420  and  _421
REMARK  168  A    between atoms: _430  and  _432
REMARK  169  A    between atoms: _432  and  _433
REMARK  170  A    between atoms: _432  and  _435
REMARK  171  A    between atoms: _435  and  _436
REMARK  172  A    between atoms: _441  and  _443
REMARK  173  A    between atoms: _443  and  _444
REMARK  174  A    between atoms: _443  and  _446
REMARK  175  A    between atoms: _446  and  _447
REMARK  176  A    between atoms: _447  and  _448
REMARK  177  A    between atoms: _448  and  _449
REMARK  178  A    between atoms: _458  and  _460
REMARK  179  A    between atoms: _460  and  _461
REMARK  180  A    between atoms: _464  and  _466
REMARK  181  A    between atoms: _466  and  _467
REMARK  182  A    between atoms: _469  and  _471
REMARK  183  A    between atoms: _471  and  _472
REMARK  184  A    between atoms: _471  and  _474
REMARK  185  A    between atoms: _474  and  _475
REMARK  186  A    between atoms: _485  and  _487
REMARK  187  A    between atoms: _487  and  _488
REMARK  188  A    between atoms: _487  and  _490
REMARK  189  A    between atoms: _490  and  _491
REMARK  190  A    between atoms: _492  and  _494
REMARK  191  A    between atoms: _494  and  _495
REMARK  192  A    between atoms: _498  and  _500
REMARK  193  A    between atoms: _500  and  _501
REMARK  194  A    between atoms: _500  and  _503
REMARK  195  A    between atoms: _503  and  _504
REMARK  196  A    between atoms: _507  and  _509
REMARK  197  A    between atoms: _509  and  _510
REMARK  198  A    between atoms: _509  and  _512
REMARK  199  A    between atoms: _512  and  _513
REMARK  200  A    between atoms: _518  and  _519
REMARK  201  A    between atoms: _521  and  _523
REMARK  202  A    between atoms: _523  and  _524
REMARK  203  A    between atoms: _523  and  _526
REMARK  204  A    between atoms: _526  and  _527
REMARK  205  A    between atoms: _529  and  _531
REMARK  206  A    between atoms: _531  and  _532
REMARK  207  A    between atoms: _531  and  _534
REMARK  208  A    between atoms: _534  and  _535
REMARK  209  A    between atoms: _541  and  _543
REMARK  210  A    between atoms: _543  and  _544
REMARK  211  A    between atoms: _543  and  _546
REMARK  212  A    between atoms: _546  and  _547
REMARK  213  A    between atoms: _550  and  _552
REMARK  214  A    between atoms: _552  and  _553
REMARK  215  A    between atoms: _552  and  _555
REMARK  216  A    between atoms: _555  and  _556
REMARK  217  A    between atoms: _556  and  _557
REMARK  218  A    between atoms: _559  and  _561
REMARK  219  A    between atoms: _561  and  _562
REMARK  220  A    between atoms: _561  and  _564
REMARK  221  A    between atoms: _564  and  _565
REMARK  222  A    between atoms: _567  and  _569
REMARK  223  A    between atoms: _569  and  _570
REMARK  224  A    between atoms: _569  and  _572
REMARK  225  A    between atoms: _572  and  _573
REMARK  226  A    between atoms: _575  and  _577
REMARK  227  A    between atoms: _577  and  _578
REMARK  228  A    between atoms: _577  and  _580
REMARK  229  A    between atoms: _580  and  _581
REMARK  230  A    between atoms: _586  and  _588
REMARK  231  A    between atoms: _588  and  _589
REMARK  232  A    between atoms: _588  and  _591
REMARK  233  A    between atoms: _591  and  _592
REMARK  234  A    between atoms: _597  and  _599
REMARK  235  A    between atoms: _599  and  _600
REMARK  236  A    between atoms: _599  and  _602
REMARK  237  A    between atoms: _602  and  _603
REMARK  238  A    between atoms: _606  and  _608
REMARK  239  A    between atoms: _608  and  _609
REMARK  240  A    between atoms: _612  and  _614
REMARK  241  A    between atoms: _614  and  _615
REMARK  242  A    between atoms: _614  and  _617
REMARK  243  A    between atoms: _617  and  _618
REMARK  244  A    between atoms: _623  and  _625
REMARK  245  A    between atoms: _625  and  _626
REMARK  246  A    between atoms: _625  and  _628
REMARK  247  A    between atoms: _628  and  _629
REMARK  248  A    between atoms: _632  and  _634
REMARK  249  A    between atoms: _634  and  _635
REMARK  250  A    between atoms: _634  and  _637
REMARK  251  A    between atoms: _637  and  _638
REMARK  252  A    between atoms: _643  and  _644
REMARK  253  A    between atoms: _646  and  _648
REMARK  254  A    between atoms: _648  and  _649
REMARK  255  A    between atoms: _648  and  _651
REMARK  256  A    between atoms: _651  and  _652
REMARK  257  A    between atoms: _657  and  _658
REMARK  258  A    between atoms: _660  and  _662
REMARK  259  A    between atoms: _662  and  _663
REMARK  260  A    between atoms: _662  and  _665
REMARK  261  A    between atoms: _668  and  _670
REMARK  262  A    between atoms: _670  and  _671
REMARK  263  A    between atoms: _670  and  _673
REMARK  264  A    between atoms: _673  and  _674
REMARK  265  A    between atoms: _679  and  _681
REMARK  266  A    between atoms: _681  and  _682
REMARK  267  A    between atoms: _685  and  _687
REMARK  268  A    between atoms: _687  and  _688
REMARK  269  A    between atoms: _687  and  _690
REMARK  270  A    between atoms: _690  and  _691
REMARK  271  A    between atoms: _691  and  _692
REMARK  272  A    between atoms: _692  and  _693
REMARK  273  A    between atoms: _702  and  _704
REMARK  274  A    between atoms: _704  and  _705
REMARK  275  A    between atoms: _704  and  _707
REMARK  276  A    between atoms: _707  and  _708
REMARK  277  A    between atoms: _711  and  _713
REMARK  278  A    between atoms: _713  and  _714
REMARK  279  A    between atoms: _713  and  _716
REMARK  280  A    between atoms: _716  and  _717
REMARK  281  A    between atoms: _720  and  _722
REMARK  282  A    between atoms: _722  and  _723
REMARK  283  A    between atoms: _722  and  _725
REMARK  284  A    between atoms: _725  and  _726
REMARK                            x       y       z     vdW  Elec       q    Type
REMARK                         _______ _______ _______ _____ _____    ______ ____
ROOT
ATOM      1  O   HOH     1      -0.268  15.120   5.088  0.00  0.00    +0.000 OA
ENDROOT
TORSDOF 0
REMARK  Name = ../refined-set-2016/1b0h/1b0h_pocket.pdb
REMARK  284 active torsions:
REMARK  status: ('A' for Active; 'I' for Inactive)
REMARK    1  A    between atoms: _1  and  _3
REMARK    2  A    between atoms: _3  and  _4
REMARK    3  A    between atoms: _3  and  _6
REMARK    4  A    between atoms: _6  and  _7
REMARK    5  A    between atoms: _12  and  _14
REMARK    6  A    between atoms: _14  and  _15
REMARK    7  A    between atoms: _17  and  _19
REMARK    8  A    between atoms: _19  and  _20
REMARK    9  A    between atoms: _19  and  _22
REMARK   10  A    between atoms: _22  and  _23
REMARK   11  A    between atoms: _25  and  _27
REMARK   12  A    between atoms: _27  and  _28
REMARK   13  A    between atoms: _27  and  _30
REMARK   14  A    between atoms: _30  and  _31
REMARK   15  A    between atoms: _31  and  _32
REMARK   16  A    between atoms: _37  and  _39
REMARK   17  A    between atoms: _39  and  _40
REMARK   18  A    between atoms: _39  and  _42
REMARK   19  A    between atoms: _42  and  _43
REMARK   20  A    between atoms: _46  and  _48
REMARK   21  A    between atoms: _48  and  _49
REMARK   22  A    between atoms: _48  and  _51
REMARK   23  A    between atoms: _51  and  _52
REMARK   24  A    between atoms: _52  and  _53
REMARK   25  A    between atoms: _56  and  _58
REMARK   26  A    between atoms: _58  and  _59
REMARK   27  A    between atoms: _61  and  _63
REMARK   28  A    between atoms: _63  and  _64
REMARK   29  A    between atoms: _63  and  _66
REMARK   30  A    between atoms: _70  and  _71
REMARK   31  A    between atoms: _76  and  _78
REMARK   32  A    between atoms: _78  and  _79
REMARK   33  A    between atoms: _78  and  _81
REMARK   34  A    between atoms: _81  and  _82
REMARK   35  A    between atoms: _82  and  _83
REMARK   36  A    between atoms: _86  and  _88
REMARK   37  A    between atoms: _88  and  _89
REMARK   38  A    between atoms: _88  and  _91
REMARK   39  A    between atoms: _91  and  _92
REMARK   40  A    between atoms: _94  and  _96
REMARK   41  A    between atoms: _96  and  _97
REMARK   42  A    between atoms: _96  and  _99
REMARK   43  A    between atoms: _99  and  _100
REMARK   44  A    between atoms: _105  and  _107
REMARK   45  A    between atoms: _107  and  _108
REMARK   46  A    between atoms: _107  and  _110
REMARK   47  A    between atoms: _110  and  _111
REMARK   48  A    between atoms: _111  and  _112
REMARK   49  A    between atoms: _112  and  _113
REMARK   50  A    between atoms: _123  and  _124
REMARK   51  A    between atoms: _129  and  _131
REMARK   52  A    between atoms: _131  and  _132
REMARK   53  A    between atoms: _131  and  _134
REMARK   54  A    between atoms: _134  and  _135
REMARK   55  A    between atoms: _140  and  _141
REMARK   56  A    between atoms: _143  and  _145
REMARK   57  A    between atoms: _145  and  _146
REMARK   58  A    between atoms: _145  and  _148
REMARK   59  A    between atoms: _148  and  _149
REMARK   60  A    between atoms: _154  and  _155
REMARK   61  A    between atoms: _157  and  _159
REMARK   62  A    between atoms: _159  and  _160
REMARK   63  A    between atoms: _159  and  _162
REMARK   64  A    between atoms: _165  and  _167
REMARK   65  A    between atoms: _167  and  _168
REMARK   66  A    between atoms: _167  and  _170
REMARK   67  A    between atoms: _170  and  _171
REMARK   68  A    between atoms: _177  and  _178
REMARK   69  A    between atoms: _183  and  _185
REMARK   70  A    between atoms: _185  and  _186
REMARK   71  A    between atoms: _185  and  _188
REMARK   72  A    between atoms: _188  and  _189
REMARK   73  A    between atoms: _191  and  _193
REMARK   74  A    between atoms: _193  and  _194
REMARK   75  A    between atoms: _193  and  _196
REMARK   76  A    between atoms: _196  and  _197
REMARK   77  A    between atoms: _197  and  _198
REMARK   78  A    between atoms: _201  and  _203
REMARK   79  A    between atoms: _203  and  _204
REMARK   80  A    between atoms: _203  and  _206
REMARK   81  A    between atoms: _206  and  _207
REMARK   82  A    between atoms: _212  and  _213
REMARK   83  A    between atoms: _215  and  _217
REMARK   84  A    between atoms: _217  and  _218
REMARK   85  A    between atoms: _217  and  _220
REMARK   86  A    between atoms: _220  and  _221
REMARK   87  A    between atoms: _226  and  _228
REMARK   88  A    between atoms: _228  and  _229
REMARK   89  A    between atoms: _228  and  _231
REMARK   90  A    between atoms: _231  and  _232
REMARK   91  A    between atoms: _237  and  _239
REMARK   92  A    between atoms: _239  and  _240
REMARK   93  A    between atoms: _239  and  _242
REMARK   94  A    between atoms: _242  and  _243
REMARK   95  A    between atoms: _243  and  _244
REMARK   96  A    between atoms: _246  and  _248
REMARK   97  A    between atoms: _248  and  _249
REMARK   98  A    between atoms: _248  and  _251
REMARK   99  A    between atoms: _251  and  _252
REMARK  100  A    between atoms: _257  and  _258
REMARK  101  A    between atoms: _260  and  _262
REMARK  102  A    between atoms: _262  and  _263
REMARK  103  A    between atoms: _262  and  _265
REMARK  104  A    between atoms: _265  and  _266
REMARK  105  A    between atoms: _269  and  _271
REMARK  106  A    between atoms: _271  and  _272
REMARK  107  A    between atoms: _271  and  _274
REMARK  108  A    between atoms: _274  and  _275
REMARK  109  A    between atoms: _275  and  _491
REMARK  110  A    between atoms: _276  and  _278
REMARK  111  A    between atoms: _278  and  _279
REMARK  112  A    between atoms: _278  and  _281
REMARK  113  A    between atoms: _281  and  _282
REMARK  114  A    between atoms: _285  and  _287
REMARK  115  A    between atoms: _287  and  _288
REMARK  116  A    between atoms: _287  and  _290
REMARK  117  A    between atoms: _290  and  _291
REMARK  118  A    between atoms: _296  and  _297
REMARK  119  A    between atoms: _299  and  _301
REMARK  120  A    between atoms: _301  and  _302
REMARK  121  A    between atoms: _301  and  _304
REMARK  122  A    between atoms: _304  and  _305
REMARK  123  A    between atoms: _310  and  _311
REMARK  124  A    between atoms: _313  and  _315
REMARK  125  A    between atoms: _315  and  _316
REMARK  126  A    between atoms: _315  and  _318
REMARK  127  A    between atoms: _318  and  _319
REMARK  128  A    between atoms: _319  and  _320
REMARK  129  A    between atoms: _323  and  _325
REMARK  130  A    between atoms: _325  and  _326
REMARK  131  A    between atoms: _325  and  _328
REMARK  132  A    between atoms: _328  and  _329
REMARK  133  A    between atoms: _334  and  _335
REMARK  134  A    between atoms: _337  and  _339
REMARK  135  A    between atoms: _339  and  _340
REMARK  136  A    between atoms: _339  and  _342
REMARK  137  A    between atoms: _342  and  _343
REMARK  138  A    between atoms: _348  and  _350
REMARK  139  A    between atoms: _350  and  _351
REMARK  140  A    between atoms: _350  and  _353
REMARK  141  A    between atoms: _353  and  _354
REMARK  142  A    between atoms: _356  and  _358
REMARK  143  A    between atoms: _358  and  _359
REMARK  144  A    between atoms: _358  and  _361
REMARK  145  A    between atoms: _361  and  _362
REMARK  146  A    between atoms: _365  and  _367
REMARK  147  A    between atoms: _367  and  _368
REMARK  148  A    between atoms: _367  and  _370
REMARK  149  A    between atoms: _370  and  _371
REMARK  150  A    between atoms: _376  and  _378
REMARK  151  A    between atoms: _378  and  _379
REMARK  152  A    between atoms: _378  and  _381
REMARK  153  A    between atoms: _381  and  _382
REMARK  154  A    between atoms: _392  and  _394
REMARK  155  A    between atoms: _394  and  _395
REMARK  156  A    between atoms: _394  and  _397
REMARK  157  A    between atoms: _397  and  _398
REMARK  158  A    between atoms: _404  and  _406
REMARK  159  A    between atoms: _406  and  _407
REMARK  160  A    between atoms: _406  and  _409
REMARK  161  A    between atoms: _409  and  _410
REMARK  162  A    between atoms: _413  and  _415
REMARK  163  A    between atoms: _415  and  _416
REMARK  164  A    between atoms: _415  and  _418
REMARK  165  A    between atoms: _418  and  _419
REMARK  166  A    between atoms: _419  and  _420
REMARK  167  A    between atoms: _420  and  _421
REMARK  168  A    between atoms: _430  and  _432
REMARK  169  A    between atoms: _432  and  _433
REMARK  170  A    between atoms: _432  and  _435
REMARK  171  A    between atoms: _435  and  _436
REMARK  172  A    between atoms: _441  and  _443
REMARK  173  A    between atoms: _443  and  _444
REMARK  174  A    between atoms: _443  and  _446
REMARK  175  A    between atoms: _446  and  _447
REMARK  176  A    between atoms: _447  and  _448
REMARK  177  A    between atoms: _448  and  _449
REMARK  178  A    between atoms: _458  and  _460
REMARK  179  A    between atoms: _460  and  _461
REMARK  180  A    between atoms: _464  and  _466
REMARK  181  A    between atoms: _466  and  _467
REMARK  182  A    between atoms: _469  and  _471
REMARK  183  A    between atoms: _471  and  _472
REMARK  184  A    between atoms: _471  and  _474
REMARK  185  A    between atoms: _474  and  _475
REMARK  186  A    between atoms: _485  and  _487
REMARK  187  A    between atoms: _487  and  _488
REMARK  188  A    between atoms: _487  and  _490
REMARK  189  A    between atoms: _490  and  _491
REMARK  190  A    between atoms: _492  and  _494
REMARK  191  A    between atoms: _494  and  _495
REMARK  192  A    between atoms: _498  and  _500
REMARK  193  A    between atoms: _500  and  _501
REMARK  194  A    between atoms: _500  and  _503
REMARK  195  A    between atoms: _503  and  _504
REMARK  196  A    between atoms: _507  and  _509
REMARK  197  A    between atoms: _509  and  _510
REMARK  198  A    between atoms: _509  and  _512
REMARK  199  A    between atoms: _512  and  _513
REMARK  200  A    between atoms: _518  and  _519
REMARK  201  A    between atoms: _521  and  _523
REMARK  202  A    between atoms: _523  and  _524
REMARK  203  A    between atoms: _523  and  _526
REMARK  204  A    between atoms: _526  and  _527
REMARK  205  A    between atoms: _529  and  _531
REMARK  206  A    between atoms: _531  and  _532
REMARK  207  A    between atoms: _531  and  _534
REMARK  208  A    between atoms: _534  and  _535
REMARK  209  A    between atoms: _541  and  _543
REMARK  210  A    between atoms: _543  and  _544
REMARK  211  A    between atoms: _543  and  _546
REMARK  212  A    between atoms: _546  and  _547
REMARK  213  A    between atoms: _550  and  _552
REMARK  214  A    between atoms: _552  and  _553
REMARK  215  A    between atoms: _552  and  _555
REMARK  216  A    between atoms: _555  and  _556
REMARK  217  A    between atoms: _556  and  _557
REMARK  218  A    between atoms: _559  and  _561
REMARK  219  A    between atoms: _561  and  _562
REMARK  220  A    between atoms: _561  and  _564
REMARK  221  A    between atoms: _564  and  _565
REMARK  222  A    between atoms: _567  and  _569
REMARK  223  A    between atoms: _569  and  _570
REMARK  224  A    between atoms: _569  and  _572
REMARK  225  A    between atoms: _572  and  _573
REMARK  226  A    between atoms: _575  and  _577
REMARK  227  A    between atoms: _577  and  _578
REMARK  228  A    between atoms: _577  and  _580
REMARK  229  A    between atoms: _580  and  _581
REMARK  230  A    between atoms: _586  and  _588
REMARK  231  A    between atoms: _588  and  _589
REMARK  232  A    between atoms: _588  and  _591
REMARK  233  A    between atoms: _591  and  _592
REMARK  234  A    between atoms: _597  and  _599
REMARK  235  A    between atoms: _599  and  _600
REMARK  236  A    between atoms: _599  and  _602
REMARK  237  A    between atoms: _602  and  _603
REMARK  238  A    between atoms: _606  and  _608
REMARK  239  A    between atoms: _608  and  _609
REMARK  240  A    between atoms: _612  and  _614
REMARK  241  A    between atoms: _614  and  _615
REMARK  242  A    between atoms: _614  and  _617
REMARK  243  A    between atoms: _617  and  _618
REMARK  244  A    between atoms: _623  and  _625
REMARK  245  A    between atoms: _625  and  _626
REMARK  246  A    between atoms: _625  and  _628
REMARK  247  A    between atoms: _628  and  _629
REMARK  248  A    between atoms: _632  and  _634
REMARK  249  A    between atoms: _634  and  _635
REMARK  250  A    between atoms: _634  and  _637
REMARK  251  A    between atoms: _637  and  _638
REMARK  252  A    between atoms: _643  and  _644
REMARK  253  A    between atoms: _646  and  _648
REMARK  254  A    between atoms: _648  and  _649
REMARK  255  A    between atoms: _648  and  _651
REMARK  256  A    between atoms: _651  and  _652
REMARK  257  A    between atoms: _657  and  _658
REMARK  258  A    between atoms: _660  and  _662
REMARK  259  A    between atoms: _662  and  _663
REMARK  260  A    between atoms: _662  and  _665
REMARK  261  A    between atoms: _668  and  _670
REMARK  262  A    between atoms: _670  and  _671
REMARK  263  A    between atoms: _670  and  _673
REMARK  264  A    between atoms: _673  and  _674
REMARK  265  A    between atoms: _679  and  _681
REMARK  266  A    between atoms: _681  and  _682
REMARK  267  A    between atoms: _685  and  _687
REMARK  268  A    between atoms: _687  and  _688
REMARK  269  A    between atoms: _687  and  _690
REMARK  270  A    between atoms: _690  and  _691
REMARK  271  A    between atoms: _691  and  _692
REMARK  272  A    between atoms: _692  and  _693
REMARK  273  A    between atoms: _702  and  _704
REMARK  274  A    between atoms: _704  and  _705
REMARK  275  A    between atoms: _704  and  _707
REMARK  276  A    between atoms: _707  and  _708
REMARK  277  A    between atoms: _711  and  _713
REMARK  278  A    between atoms: _713  and  _714
REMARK  279  A    between atoms: _713  and  _716
REMARK  280  A    between atoms: _716  and  _717
REMARK  281  A    between atoms: _720  and  _722
REMARK  282  A    between atoms: _722  and  _723
REMARK  283  A    between atoms: _722  and  _725
REMARK  284  A    between atoms: _725  and  _726
REMARK                            x       y       z     vdW  Elec       q    Type
REMARK                         _______ _______ _______ _____ _____    ______ ____
ROOT
ATOM      1  O   HOH     1      11.272  13.791  16.800  0.00  0.00    +0.000 OA
ENDROOT
TORSDOF 0
REMARK  Name = ../refined-set-2016/1b0h/1b0h_pocket.pdb
REMARK  284 active torsions:
REMARK  status: ('A' for Active; 'I' for Inactive)
REMARK    1  A    between atoms: _1  and  _3
REMARK    2  A    between atoms: _3  and  _4
REMARK    3  A    between atoms: _3  and  _6
REMARK    4  A    between atoms: _6  and  _7
REMARK    5  A    between atoms: _12  and  _14
REMARK    6  A    between atoms: _14  and  _15
REMARK    7  A    between atoms: _17  and  _19
REMARK    8  A    between atoms: _19  and  _20
REMARK    9  A    between atoms: _19  and  _22
REMARK   10  A    between atoms: _22  and  _23
REMARK   11  A    between atoms: _25  and  _27
REMARK   12  A    between atoms: _27  and  _28
REMARK   13  A    between atoms: _27  and  _30
REMARK   14  A    between atoms: _30  and  _31
REMARK   15  A    between atoms: _31  and  _32
REMARK   16  A    between atoms: _37  and  _39
REMARK   17  A    between atoms: _39  and  _40
REMARK   18  A    between atoms: _39  and  _42
REMARK   19  A    between atoms: _42  and  _43
REMARK   20  A    between atoms: _46  and  _48
REMARK   21  A    between atoms: _48  and  _49
REMARK   22  A    between atoms: _48  and  _51
REMARK   23  A    between atoms: _51  and  _52
REMARK   24  A    between atoms: _52  and  _53
REMARK   25  A    between atoms: _56  and  _58
REMARK   26  A    between atoms: _58  and  _59
REMARK   27  A    between atoms: _61  and  _63
REMARK   28  A    between atoms: _63  and  _64
REMARK   29  A    between atoms: _63  and  _66
REMARK   30  A    between atoms: _70  and  _71
REMARK   31  A    between atoms: _76  and  _78
REMARK   32  A    between atoms: _78  and  _79
REMARK   33  A    between atoms: _78  and  _81
REMARK   34  A    between atoms: _81  and  _82
REMARK   35  A    between atoms: _82  and  _83
REMARK   36  A    between atoms: _86  and  _88
REMARK   37  A    between atoms: _88  and  _89
REMARK   38  A    between atoms: _88  and  _91
REMARK   39  A    between atoms: _91  and  _92
REMARK   40  A    between atoms: _94  and  _96
REMARK   41  A    between atoms: _96  and  _97
REMARK   42  A    between atoms: _96  and  _99
REMARK   43  A    between atoms: _99  and  _100
REMARK   44  A    between atoms: _105  and  _107
REMARK   45  A    between atoms: _107  and  _108
REMARK   46  A    between atoms: _107  and  _110
REMARK   47  A    between atoms: _110  and  _111
REMARK   48  A    between atoms: _111  and  _112
REMARK   49  A    between atoms: _112  and  _113
REMARK   50  A    between atoms: _123  and  _124
REMARK   51  A    between atoms: _129  and  _131
REMARK   52  A    between atoms: _131  and  _132
REMARK   53  A    between atoms: _131  and  _134
REMARK   54  A    between atoms: _134  and  _135
REMARK   55  A    between atoms: _140  and  _141
REMARK   56  A    between atoms: _143  and  _145
REMARK   57  A    between atoms: _145  and  _146
REMARK   58  A    between atoms: _145  and  _148
REMARK   59  A    between atoms: _148  and  _149
REMARK   60  A    between atoms: _154  and  _155
REMARK   61  A    between atoms: _157  and  _159
REMARK   62  A    between atoms: _159  and  _160
REMARK   63  A    between atoms: _159  and  _162
REMARK   64  A    between atoms: _165  and  _167
REMARK   65  A    between atoms: _167  and  _168
REMARK   66  A    between atoms: _167  and  _170
REMARK   67  A    between atoms: _170  and  _171
REMARK   68  A    between atoms: _177  and  _178
REMARK   69  A    between atoms: _183  and  _185
REMARK   70  A    between atoms: _185  and  _186
REMARK   71  A    between atoms: _185  and  _188
REMARK   72  A    between atoms: _188  and  _189
REMARK   73  A    between atoms: _191  and  _193
REMARK   74  A    between atoms: _193  and  _194
REMARK   75  A    between atoms: _193  and  _196
REMARK   76  A    between atoms: _196  and  _197
REMARK   77  A    between atoms: _197  and  _198
REMARK   78  A    between atoms: _201  and  _203
REMARK   79  A    between atoms: _203  and  _204
REMARK   80  A    between atoms: _203  and  _206
REMARK   81  A    between atoms: _206  and  _207
REMARK   82  A    between atoms: _212  and  _213
REMARK   83  A    between atoms: _215  and  _217
REMARK   84  A    between atoms: _217  and  _218
REMARK   85  A    between atoms: _217  and  _220
REMARK   86  A    between atoms: _220  and  _221
REMARK   87  A    between atoms: _226  and  _228
REMARK   88  A    between atoms: _228  and  _229
REMARK   89  A    between atoms: _228  and  _231
REMARK   90  A    between atoms: _231  and  _232
REMARK   91  A    between atoms: _237  and  _239
REMARK   92  A    between atoms: _239  and  _240
REMARK   93  A    between atoms: _239  and  _242
REMARK   94  A    between atoms: _242  and  _243
REMARK   95  A    between atoms: _243  and  _244
REMARK   96  A    between atoms: _246  and  _248
REMARK   97  A    between atoms: _248  and  _249
REMARK   98  A    between atoms: _248  and  _251
REMARK   99  A    between atoms: _251  and  _252
REMARK  100  A    between atoms: _257  and  _258
REMARK  101  A    between atoms: _260  and  _262
REMARK  102  A    between atoms: _262  and  _263
REMARK  103  A    between atoms: _262  and  _265
REMARK  104  A    between atoms: _265  and  _266
REMARK  105  A    between atoms: _269  and  _271
REMARK  106  A    between atoms: _271  and  _272
REMARK  107  A    between atoms: _271  and  _274
REMARK  108  A    between atoms: _274  and  _275
REMARK  109  A    between atoms: _275  and  _491
REMARK  110  A    between atoms: _276  and  _278
REMARK  111  A    between atoms: _278  and  _279
REMARK  112  A    between atoms: _278  and  _281
REMARK  113  A    between atoms: _281  and  _282
REMARK  114  A    between atoms: _285  and  _287
REMARK  115  A    between atoms: _287  and  _288
REMARK  116  A    between atoms: _287  and  _290
REMARK  117  A    between atoms: _290  and  _291
REMARK  118  A    between atoms: _296  and  _297
REMARK  119  A    between atoms: _299  and  _301
REMARK  120  A    between atoms: _301  and  _302
REMARK  121  A    between atoms: _301  and  _304
REMARK  122  A    between atoms: _304  and  _305
REMARK  123  A    between atoms: _310  and  _311
REMARK  124  A    between atoms: _313  and  _315
REMARK  125  A    between atoms: _315  and  _316
REMARK  126  A    between atoms: _315  and  _318
REMARK  127  A    between atoms: _318  and  _319
REMARK  128  A    between atoms: _319  and  _320
REMARK  129  A    between atoms: _323  and  _325
REMARK  130  A    between atoms: _325  and  _326
REMARK  131  A    between atoms: _325  and  _328
REMARK  132  A    between atoms: _328  and  _329
REMARK  133  A    between atoms: _334  and  _335
REMARK  134  A    between atoms: _337  and  _339
REMARK  135  A    between atoms: _339  and  _340
REMARK  136  A    between atoms: _339  and  _342
REMARK  137  A    between atoms: _342  and  _343
REMARK  138  A    between atoms: _348  and  _350
REMARK  139  A    between atoms: _350  and  _351
REMARK  140  A    between atoms: _350  and  _353
REMARK  141  A    between atoms: _353  and  _354
REMARK  142  A    between atoms: _356  and  _358
REMARK  143  A    between atoms: _358  and  _359
REMARK  144  A    between atoms: _358  and  _361
REMARK  145  A    between atoms: _361  and  _362
REMARK  146  A    between atoms: _365  and  _367
REMARK  147  A    between atoms: _367  and  _368
REMARK  148  A    between atoms: _367  and  _370
REMARK  149  A    between atoms: _370  and  _371
REMARK  150  A    between atoms: _376  and  _378
REMARK  151  A    between atoms: _378  and  _379
REMARK  152  A    between atoms: _378  and  _381
REMARK  153  A    between atoms: _381  and  _382
REMARK  154  A    between atoms: _392  and  _394
REMARK  155  A    between atoms: _394  and  _395
REMARK  156  A    between atoms: _394  and  _397
REMARK  157  A    between atoms: _397  and  _398
REMARK  158  A    between atoms: _404  and  _406
REMARK  159  A    between atoms: _406  and  _407
REMARK  160  A    between atoms: _406  and  _409
REMARK  161  A    between atoms: _409  and  _410
REMARK  162  A    between atoms: _413  and  _415
REMARK  163  A    between atoms: _415  and  _416
REMARK  164  A    between atoms: _415  and  _418
REMARK  165  A    between atoms: _418  and  _419
REMARK  166  A    between atoms: _419  and  _420
REMARK  167  A    between atoms: _420  and  _421
REMARK  168  A    between atoms: _430  and  _432
REMARK  169  A    between atoms: _432  and  _433
REMARK  170  A    between atoms: _432  and  _435
REMARK  171  A    between atoms: _435  and  _436
REMARK  172  A    between atoms: _441  and  _443
REMARK  173  A    between atoms: _443  and  _444
REMARK  174  A    between atoms: _443  and  _446
REMARK  175  A    between atoms: _446  and  _447
REMARK  176  A    between atoms: _447  and  _448
REMARK  177  A    between atoms: _448  and  _449
REMARK  178  A    between atoms: _458  and  _460
REMARK  179  A    between atoms: _460  and  _461
REMARK  180  A    between atoms: _464  and  _466
REMARK  181  A    between atoms: _466  and  _467
REMARK  182  A    between atoms: _469  and  _471
REMARK  183  A    between atoms: _471  and  _472
REMARK  184  A    between atoms: _471  and  _474
REMARK  185  A    between atoms: _474  and  _475
REMARK  186  A    between atoms: _485  and  _487
REMARK  187  A    between atoms: _487  and  _488
REMARK  188  A    between atoms: _487  and  _490
REMARK  189  A    between atoms: _490  and  _491
REMARK  190  A    between atoms: _492  and  _494
REMARK  191  A    between atoms: _494  and  _495
REMARK  192  A    between atoms: _498  and  _500
REMARK  193  A    between atoms: _500  and  _501
REMARK  194  A    between atoms: _500  and  _503
REMARK  195  A    between atoms: _503  and  _504
REMARK  196  A    between atoms: _507  and  _509
REMARK  197  A    between atoms: _509  and  _510
REMARK  198  A    between atoms: _509  and  _512
REMARK  199  A    between atoms: _512  and  _513
REMARK  200  A    between atoms: _518  and  _519
REMARK  201  A    between atoms: _521  and  _523
REMARK  202  A    between atoms: _523  and  _524
REMARK  203  A    between atoms: _523  and  _526
REMARK  204  A    between atoms: _526  and  _527
REMARK  205  A    between atoms: _529  and  _531
REMARK  206  A    between atoms: _531  and  _532
REMARK  207  A    between atoms: _531  and  _534
REMARK  208  A    between atoms: _534  and  _535
REMARK  209  A    between atoms: _541  and  _543
REMARK  210  A    between atoms: _543  and  _544
REMARK  211  A    between atoms: _543  and  _546
REMARK  212  A    between atoms: _546  and  _547
REMARK  213  A    between atoms: _550  and  _552
REMARK  214  A    between atoms: _552  and  _553
REMARK  215  A    between atoms: _552  and  _555
REMARK  216  A    between atoms: _555  and  _556
REMARK  217  A    between atoms: _556  and  _557
REMARK  218  A    between atoms: _559  and  _561
REMARK  219  A    between atoms: _561  and  _562
REMARK  220  A    between atoms: _561  and  _564
REMARK  221  A    between atoms: _564  and  _565
REMARK  222  A    between atoms: _567  and  _569
REMARK  223  A    between atoms: _569  and  _570
REMARK  224  A    between atoms: _569  and  _572
REMARK  225  A    between atoms: _572  and  _573
REMARK  226  A    between atoms: _575  and  _577
REMARK  227  A    between atoms: _577  and  _578
REMARK  228  A    between atoms: _577  and  _580
REMARK  229  A    between atoms: _580  and  _581
REMARK  230  A    between atoms: _586  and  _588
REMARK  231  A    between atoms: _588  and  _589
REMARK  232  A    between atoms: _588  and  _591
REMARK  233  A    between atoms: _591  and  _592
REMARK  234  A    between atoms: _597  and  _599
REMARK  235  A    between atoms: _599  and  _600
REMARK  236  A    between atoms: _599  and  _602
REMARK  237  A    between atoms: _602  and  _603
REMARK  238  A    between atoms: _606  and  _608
REMARK  239  A    between atoms: _608  and  _609
REMARK  240  A    between atoms: _612  and  _614
REMARK  241  A    between atoms: _614  and  _615
REMARK  242  A    between atoms: _614  and  _617
REMARK  243  A    between atoms: _617  and  _618
REMARK  244  A    between atoms: _623  and  _625
REMARK  245  A    between atoms: _625  and  _626
REMARK  246  A    between atoms: _625  and  _628
REMARK  247  A    between atoms: _628  and  _629
REMARK  248  A    between atoms: _632  and  _634
REMARK  249  A    between atoms: _634  and  _635
REMARK  250  A    between atoms: _634  and  _637
REMARK  251  A    between atoms: _637  and  _638
REMARK  252  A    between atoms: _643  and  _644
REMARK  253  A    between atoms: _646  and  _648
REMARK  254  A    between atoms: _648  and  _649
REMARK  255  A    between atoms: _648  and  _651
REMARK  256  A    between atoms: _651  and  _652
REMARK  257  A    between atoms: _657  and  _658
REMARK  258  A    between atoms: _660  and  _662
REMARK  259  A    between atoms: _662  and  _663
REMARK  260  A    between atoms: _662  and  _665
REMARK  261  A    between atoms: _668  and  _670
REMARK  262  A    between atoms: _670  and  _671
REMARK  263  A    between atoms: _670  and  _673
REMARK  264  A    between atoms: _673  and  _674
REMARK  265  A    between atoms: _679  and  _681
REMARK  266  A    between atoms: _681  and  _682
REMARK  267  A    between atoms: _685  and  _687
REMARK  268  A    between atoms: _687  and  _688
REMARK  269  A    between atoms: _687  and  _690
REMARK  270  A    between atoms: _690  and  _691
REMARK  271  A    between atoms: _691  and  _692
REMARK  272  A    between atoms: _692  and  _693
REMARK  273  A    between atoms: _702  and  _704
REMARK  274  A    between atoms: _704  and  _705
REMARK  275  A    between atoms: _704  and  _707
REMARK  276  A    between atoms: _707  and  _708
REMARK  277  A    between atoms: _711  and  _713
REMARK  278  A    between atoms: _713  and  _714
REMARK  279  A    between atoms: _713  and  _716
REMARK  280  A    between atoms: _716  and  _717
REMARK  281  A    between atoms: _720  and  _722
REMARK  282  A    between atoms: _722  and  _723
REMARK  283  A    between atoms: _722  and  _725
REMARK  284  A    between atoms: _725  and  _726
REMARK                            x       y       z     vdW  Elec       q    Type
REMARK                         _______ _______ _______ _____ _____    ______ ____
ROOT
ATOM      1  O   HOH     1      -4.512  27.406  13.714  0.00  0.00    +0.000 OA
ENDROOT
TORSDOF 0
REMARK  Name = ../refined-set-2016/1b0h/1b0h_pocket.pdb
REMARK  284 active torsions:
REMARK  status: ('A' for Active; 'I' for Inactive)
REMARK    1  A    between atoms: _1  and  _3
REMARK    2  A    between atoms: _3  and  _4
REMARK    3  A    between atoms: _3  and  _6
REMARK    4  A    between atoms: _6  and  _7
REMARK    5  A    between atoms: _12  and  _14
REMARK    6  A    between atoms: _14  and  _15
REMARK    7  A    between atoms: _17  and  _19
REMARK    8  A    between atoms: _19  and  _20
REMARK    9  A    between atoms: _19  and  _22
REMARK   10  A    between atoms: _22  and  _23
REMARK   11  A    between atoms: _25  and  _27
REMARK   12  A    between atoms: _27  and  _28
REMARK   13  A    between atoms: _27  and  _30
REMARK   14  A    between atoms: _30  and  _31
REMARK   15  A    between atoms: _31  and  _32
REMARK   16  A    between atoms: _37  and  _39
REMARK   17  A    between atoms: _39  and  _40
REMARK   18  A    between atoms: _39  and  _42
REMARK   19  A    between atoms: _42  and  _43
REMARK   20  A    between atoms: _46  and  _48
REMARK   21  A    between atoms: _48  and  _49
REMARK   22  A    between atoms: _48  and  _51
REMARK   23  A    between atoms: _51  and  _52
REMARK   24  A    between atoms: _52  and  _53
REMARK   25  A    between atoms: _56  and  _58
REMARK   26  A    between atoms: _58  and  _59
REMARK   27  A    between atoms: _61  and  _63
REMARK   28  A    between atoms: _63  and  _64
REMARK   29  A    between atoms: _63  and  _66
REMARK   30  A    between atoms: _70  and  _71
REMARK   31  A    between atoms: _76  and  _78
REMARK   32  A    between atoms: _78  and  _79
REMARK   33  A    between atoms: _78  and  _81
REMARK   34  A    between atoms: _81  and  _82
REMARK   35  A    between atoms: _82  and  _83
REMARK   36  A    between atoms: _86  and  _88
REMARK   37  A    between atoms: _88  and  _89
REMARK   38  A    between atoms: _88  and  _91
REMARK   39  A    between atoms: _91  and  _92
REMARK   40  A    between atoms: _94  and  _96
REMARK   41  A    between atoms: _96  and  _97
REMARK   42  A    between atoms: _96  and  _99
REMARK   43  A    between atoms: _99  and  _100
REMARK   44  A    between atoms: _105  and  _107
REMARK   45  A    between atoms: _107  and  _108
REMARK   46  A    between atoms: _107  and  _110
REMARK   47  A    between atoms: _110  and  _111
REMARK   48  A    between atoms: _111  and  _112
REMARK   49  A    between atoms: _112  and  _113
REMARK   50  A    between atoms: _123  and  _124
REMARK   51  A    between atoms: _129  and  _131
REMARK   52  A    between atoms: _131  and  _132
REMARK   53  A    between atoms: _131  and  _134
REMARK   54  A    between atoms: _134  and  _135
REMARK   55  A    between atoms: _140  and  _141
REMARK   56  A    between atoms: _143  and  _145
REMARK   57  A    between atoms: _145  and  _146
REMARK   58  A    between atoms: _145  and  _148
REMARK   59  A    between atoms: _148  and  _149
REMARK   60  A    between atoms: _154  and  _155
REMARK   61  A    between atoms: _157  and  _159
REMARK   62  A    between atoms: _159  and  _160
REMARK   63  A    between atoms: _159  and  _162
REMARK   64  A    between atoms: _165  and  _167
REMARK   65  A    between atoms: _167  and  _168
REMARK   66  A    between atoms: _167  and  _170
REMARK   67  A    between atoms: _170  and  _171
REMARK   68  A    between atoms: _177  and  _178
REMARK   69  A    between atoms: _183  and  _185
REMARK   70  A    between atoms: _185  and  _186
REMARK   71  A    between atoms: _185  and  _188
REMARK   72  A    between atoms: _188  and  _189
REMARK   73  A    between atoms: _191  and  _193
REMARK   74  A    between atoms: _193  and  _194
REMARK   75  A    between atoms: _193  and  _196
REMARK   76  A    between atoms: _196  and  _197
REMARK   77  A    between atoms: _197  and  _198
REMARK   78  A    between atoms: _201  and  _203
REMARK   79  A    between atoms: _203  and  _204
REMARK   80  A    between atoms: _203  and  _206
REMARK   81  A    between atoms: _206  and  _207
REMARK   82  A    between atoms: _212  and  _213
REMARK   83  A    between atoms: _215  and  _217
REMARK   84  A    between atoms: _217  and  _218
REMARK   85  A    between atoms: _217  and  _220
REMARK   86  A    between atoms: _220  and  _221
REMARK   87  A    between atoms: _226  and  _228
REMARK   88  A    between atoms: _228  and  _229
REMARK   89  A    between atoms: _228  and  _231
REMARK   90  A    between atoms: _231  and  _232
REMARK   91  A    between atoms: _237  and  _239
REMARK   92  A    between atoms: _239  and  _240
REMARK   93  A    between atoms: _239  and  _242
REMARK   94  A    between atoms: _242  and  _243
REMARK   95  A    between atoms: _243  and  _244
REMARK   96  A    between atoms: _246  and  _248
REMARK   97  A    between atoms: _248  and  _249
REMARK   98  A    between atoms: _248  and  _251
REMARK   99  A    between atoms: _251  and  _252
REMARK  100  A    between atoms: _257  and  _258
REMARK  101  A    between atoms: _260  and  _262
REMARK  102  A    between atoms: _262  and  _263
REMARK  103  A    between atoms: _262  and  _265
REMARK  104  A    between atoms: _265  and  _266
REMARK  105  A    between atoms: _269  and  _271
REMARK  106  A    between atoms: _271  and  _272
REMARK  107  A    between atoms: _271  and  _274
REMARK  108  A    between atoms: _274  and  _275
REMARK  109  A    between atoms: _275  and  _491
REMARK  110  A    between atoms: _276  and  _278
REMARK  111  A    between atoms: _278  and  _279
REMARK  112  A    between atoms: _278  and  _281
REMARK  113  A    between atoms: _281  and  _282
REMARK  114  A    between atoms: _285  and  _287
REMARK  115  A    between atoms: _287  and  _288
REMARK  116  A    between atoms: _287  and  _290
REMARK  117  A    between atoms: _290  and  _291
REMARK  118  A    between atoms: _296  and  _297
REMARK  119  A    between atoms: _299  and  _301
REMARK  120  A    between atoms: _301  and  _302
REMARK  121  A    between atoms: _301  and  _304
REMARK  122  A    between atoms: _304  and  _305
REMARK  123  A    between atoms: _310  and  _311
REMARK  124  A    between atoms: _313  and  _315
REMARK  125  A    between atoms: _315  and  _316
REMARK  126  A    between atoms: _315  and  _318
REMARK  127  A    between atoms: _318  and  _319
REMARK  128  A    between atoms: _319  and  _320
REMARK  129  A    between atoms: _323  and  _325
REMARK  130  A    between atoms: _325  and  _326
REMARK  131  A    between atoms: _325  and  _328
REMARK  132  A    between atoms: _328  and  _329
REMARK  133  A    between atoms: _334  and  _335
REMARK  134  A    between atoms: _337  and  _339
REMARK  135  A    between atoms: _339  and  _340
REMARK  136  A    between atoms: _339  and  _342
REMARK  137  A    between atoms: _342  and  _343
REMARK  138  A    between atoms: _348  and  _350
REMARK  139  A    between atoms: _350  and  _351
REMARK  140  A    between atoms: _350  and  _353
REMARK  141  A    between atoms: _353  and  _354
REMARK  142  A    between atoms: _356  and  _358
REMARK  143  A    between atoms: _358  and  _359
REMARK  144  A    between atoms: _358  and  _361
REMARK  145  A    between atoms: _361  and  _362
REMARK  146  A    between atoms: _365  and  _367
REMARK  147  A    between atoms: _367  and  _368
REMARK  148  A    between atoms: _367  and  _370
REMARK  149  A    between atoms: _370  and  _371
REMARK  150  A    between atoms: _376  and  _378
REMARK  151  A    between atoms: _378  and  _379
REMARK  152  A    between atoms: _378  and  _381
REMARK  153  A    between atoms: _381  and  _382
REMARK  154  A    between atoms: _392  and  _394
REMARK  155  A    between atoms: _394  and  _395
REMARK  156  A    between atoms: _394  and  _397
REMARK  157  A    between atoms: _397  and  _398
REMARK  158  A    between atoms: _404  and  _406
REMARK  159  A    between atoms: _406  and  _407
REMARK  160  A    between atoms: _406  and  _409
REMARK  161  A    between atoms: _409  and  _410
REMARK  162  A    between atoms: _413  and  _415
REMARK  163  A    between atoms: _415  and  _416
REMARK  164  A    between atoms: _415  and  _418
REMARK  165  A    between atoms: _418  and  _419
REMARK  166  A    between atoms: _419  and  _420
REMARK  167  A    between atoms: _420  and  _421
REMARK  168  A    between atoms: _430  and  _432
REMARK  169  A    between atoms: _432  and  _433
REMARK  170  A    between atoms: _432  and  _435
REMARK  171  A    between atoms: _435  and  _436
REMARK  172  A    between atoms: _441  and  _443
REMARK  173  A    between atoms: _443  and  _444
REMARK  174  A    between atoms: _443  and  _446
REMARK  175  A    between atoms: _446  and  _447
REMARK  176  A    between atoms: _447  and  _448
REMARK  177  A    between atoms: _448  and  _449
REMARK  178  A    between atoms: _458  and  _460
REMARK  179  A    between atoms: _460  and  _461
REMARK  180  A    between atoms: _464  and  _466
REMARK  181  A    between atoms: _466  and  _467
REMARK  182  A    between atoms: _469  and  _471
REMARK  183  A    between atoms: _471  and  _472
REMARK  184  A    between atoms: _471  and  _474
REMARK  185  A    between atoms: _474  and  _475
REMARK  186  A    between atoms: _485  and  _487
REMARK  187  A    between atoms: _487  and  _488
REMARK  188  A    between atoms: _487  and  _490
REMARK  189  A    between atoms: _490  and  _491
REMARK  190  A    between atoms: _492  and  _494
REMARK  191  A    between atoms: _494  and  _495
REMARK  192  A    between atoms: _498  and  _500
REMARK  193  A    between atoms: _500  and  _501
REMARK  194  A    between atoms: _500  and  _503
REMARK  195  A    between atoms: _503  and  _504
REMARK  196  A    between atoms: _507  and  _509
REMARK  197  A    between atoms: _509  and  _510
REMARK  198  A    between atoms: _509  and  _512
REMARK  199  A    between atoms: _512  and  _513
REMARK  200  A    between atoms: _518  and  _519
REMARK  201  A    between atoms: _521  and  _523
REMARK  202  A    between atoms: _523  and  _524
REMARK  203  A    between atoms: _523  and  _526
REMARK  204  A    between atoms: _526  and  _527
REMARK  205  A    between atoms: _529  and  _531
REMARK  206  A    between atoms: _531  and  _532
REMARK  207  A    between atoms: _531  and  _534
REMARK  208  A    between atoms: _534  and  _535
REMARK  209  A    between atoms: _541  and  _543
REMARK  210  A    between atoms: _543  and  _544
REMARK  211  A    between atoms: _543  and  _546
REMARK  212  A    between atoms: _546  and  _547
REMARK  213  A    between atoms: _550  and  _552
REMARK  214  A    between atoms: _552  and  _553
REMARK  215  A    between atoms: _552  and  _555
REMARK  216  A    between atoms: _555  and  _556
REMARK  217  A    between atoms: _556  and  _557
REMARK  218  A    between atoms: _559  and  _561
REMARK  219  A    between atoms: _561  and  _562
REMARK  220  A    between atoms: _561  and  _564
REMARK  221  A    between atoms: _564  and  _565
REMARK  222  A    between atoms: _567  and  _569
REMARK  223  A    between atoms: _569  and  _570
REMARK  224  A    between atoms: _569  and  _572
REMARK  225  A    between atoms: _572  and  _573
REMARK  226  A    between atoms: _575  and  _577
REMARK  227  A    between atoms: _577  and  _578
REMARK  228  A    between atoms: _577  and  _580
REMARK  229  A    between atoms: _580  and  _581
REMARK  230  A    between atoms: _586  and  _588
REMARK  231  A    between atoms: _588  and  _589
REMARK  232  A    between atoms: _588  and  _591
REMARK  233  A    between atoms: _591  and  _592
REMARK  234  A    between atoms: _597  and  _599
REMARK  235  A    between atoms: _599  and  _600
REMARK  236  A    between atoms: _599  and  _602
REMARK  237  A    between atoms: _602  and  _603
REMARK  238  A    between atoms: _606  and  _608
REMARK  239  A    between atoms: _608  and  _609
REMARK  240  A    between atoms: _612  and  _614
REMARK  241  A    between atoms: _614  and  _615
REMARK  242  A    between atoms: _614  and  _617
REMARK  243  A    between atoms: _617  and  _618
REMARK  244  A    between atoms: _623  and  _625
REMARK  245  A    between atoms: _625  and  _626
REMARK  246  A    between atoms: _625  and  _628
REMARK  247  A    between atoms: _628  and  _629
REMARK  248  A    between atoms: _632  and  _634
REMARK  249  A    between atoms: _634  and  _635
REMARK  250  A    between atoms: _634  and  _637
REMARK  251  A    between atoms: _637  and  _638
REMARK  252  A    between atoms: _643  and  _644
REMARK  253  A    between atoms: _646  and  _648
REMARK  254  A    between atoms: _648  and  _649
REMARK  255  A    between atoms: _648  and  _651
REMARK  256  A    between atoms: _651  and  _652
REMARK  257  A    between atoms: _657  and  _658
REMARK  258  A    between atoms: _660  and  _662
REMARK  259  A    between atoms: _662  and  _663
REMARK  260  A    between atoms: _662  and  _665
REMARK  261  A    between atoms: _668  and  _670
REMARK  262  A    between atoms: _670  and  _671
REMARK  263  A    between atoms: _670  and  _673
REMARK  264  A    between atoms: _673  and  _674
REMARK  265  A    between atoms: _679  and  _681
REMARK  266  A    between atoms: _681  and  _682
REMARK  267  A    between atoms: _685  and  _687
REMARK  268  A    between atoms: _687  and  _688
REMARK  269  A    between atoms: _687  and  _690
REMARK  270  A    between atoms: _690  and  _691
REMARK  271  A    between atoms: _691  and  _692
REMARK  272  A    between atoms: _692  and  _693
REMARK  273  A    between atoms: _702  and  _704
REMARK  274  A    between atoms: _704  and  _705
REMARK  275  A    between atoms: _704  and  _707
REMARK  276  A    between atoms: _707  and  _708
REMARK  277  A    between atoms: _711  and  _713
REMARK  278  A    between atoms: _713  and  _714
REMARK  279  A    between atoms: _713  and  _716
REMARK  280  A    between atoms: _716  and  _717
REMARK  281  A    between atoms: _720  and  _722
REMARK  282  A    between atoms: _722  and  _723
REMARK  283  A    between atoms: _722  and  _725
REMARK  284  A    between atoms: _725  and  _726
REMARK                            x       y       z     vdW  Elec       q    Type
REMARK                         _______ _______ _______ _____ _____    ______ ____
ROOT
ATOM      1  O   HOH     1       3.502  16.847   8.098  0.00  0.00    +0.000 OA
ENDROOT
TORSDOF 0
REMARK  Name = ../refined-set-2016/1b0h/1b0h_pocket.pdb
REMARK  284 active torsions:
REMARK  status: ('A' for Active; 'I' for Inactive)
REMARK    1  A    between atoms: _1  and  _3
REMARK    2  A    between atoms: _3  and  _4
REMARK    3  A    between atoms: _3  and  _6
REMARK    4  A    between atoms: _6  and  _7
REMARK    5  A    between atoms: _12  and  _14
REMARK    6  A    between atoms: _14  and  _15
REMARK    7  A    between atoms: _17  and  _19
REMARK    8  A    between atoms: _19  and  _20
REMARK    9  A    between atoms: _19  and  _22
REMARK   10  A    between atoms: _22  and  _23
REMARK   11  A    between atoms: _25  and  _27
REMARK   12  A    between atoms: _27  and  _28
REMARK   13  A    between atoms: _27  and  _30
REMARK   14  A    between atoms: _30  and  _31
REMARK   15  A    between atoms: _31  and  _32
REMARK   16  A    between atoms: _37  and  _39
REMARK   17  A    between atoms: _39  and  _40
REMARK   18  A    between atoms: _39  and  _42
REMARK   19  A    between atoms: _42  and  _43
REMARK   20  A    between atoms: _46  and  _48
REMARK   21  A    between atoms: _48  and  _49
REMARK   22  A    between atoms: _48  and  _51
REMARK   23  A    between atoms: _51  and  _52
REMARK   24  A    between atoms: _52  and  _53
REMARK   25  A    between atoms: _56  and  _58
REMARK   26  A    between atoms: _58  and  _59
REMARK   27  A    between atoms: _61  and  _63
REMARK   28  A    between atoms: _63  and  _64
REMARK   29  A    between atoms: _63  and  _66
REMARK   30  A    between atoms: _70  and  _71
REMARK   31  A    between atoms: _76  and  _78
REMARK   32  A    between atoms: _78  and  _79
REMARK   33  A    between atoms: _78  and  _81
REMARK   34  A    between atoms: _81  and  _82
REMARK   35  A    between atoms: _82  and  _83
REMARK   36  A    between atoms: _86  and  _88
REMARK   37  A    between atoms: _88  and  _89
REMARK   38  A    between atoms: _88  and  _91
REMARK   39  A    between atoms: _91  and  _92
REMARK   40  A    between atoms: _94  and  _96
REMARK   41  A    between atoms: _96  and  _97
REMARK   42  A    between atoms: _96  and  _99
REMARK   43  A    between atoms: _99  and  _100
REMARK   44  A    between atoms: _105  and  _107
REMARK   45  A    between atoms: _107  and  _108
REMARK   46  A    between atoms: _107  and  _110
REMARK   47  A    between atoms: _110  and  _111
REMARK   48  A    between atoms: _111  and  _112
REMARK   49  A    between atoms: _112  and  _113
REMARK   50  A    between atoms: _123  and  _124
REMARK   51  A    between atoms: _129  and  _131
REMARK   52  A    between atoms: _131  and  _132
REMARK   53  A    between atoms: _131  and  _134
REMARK   54  A    between atoms: _134  and  _135
REMARK   55  A    between atoms: _140  and  _141
REMARK   56  A    between atoms: _143  and  _145
REMARK   57  A    between atoms: _145  and  _146
REMARK   58  A    between atoms: _145  and  _148
REMARK   59  A    between atoms: _148  and  _149
REMARK   60  A    between atoms: _154  and  _155
REMARK   61  A    between atoms: _157  and  _159
REMARK   62  A    between atoms: _159  and  _160
REMARK   63  A    between atoms: _159  and  _162
REMARK   64  A    between atoms: _165  and  _167
REMARK   65  A    between atoms: _167  and  _168
REMARK   66  A    between atoms: _167  and  _170
REMARK   67  A    between atoms: _170  and  _171
REMARK   68  A    between atoms: _177  and  _178
REMARK   69  A    between atoms: _183  and  _185
REMARK   70  A    between atoms: _185  and  _186
REMARK   71  A    between atoms: _185  and  _188
REMARK   72  A    between atoms: _188  and  _189
REMARK   73  A    between atoms: _191  and  _193
REMARK   74  A    between atoms: _193  and  _194
REMARK   75  A    between atoms: _193  and  _196
REMARK   76  A    between atoms: _196  and  _197
REMARK   77  A    between atoms: _197  and  _198
REMARK   78  A    between atoms: _201  and  _203
REMARK   79  A    between atoms: _203  and  _204
REMARK   80  A    between atoms: _203  and  _206
REMARK   81  A    between atoms: _206  and  _207
REMARK   82  A    between atoms: _212  and  _213
REMARK   83  A    between atoms: _215  and  _217
REMARK   84  A    between atoms: _217  and  _218
REMARK   85  A    between atoms: _217  and  _220
REMARK   86  A    between atoms: _220  and  _221
REMARK   87  A    between atoms: _226  and  _228
REMARK   88  A    between atoms: _228  and  _229
REMARK   89  A    between atoms: _228  and  _231
REMARK   90  A    between atoms: _231  and  _232
REMARK   91  A    between atoms: _237  and  _239
REMARK   92  A    between atoms: _239  and  _240
REMARK   93  A    between atoms: _239  and  _242
REMARK   94  A    between atoms: _242  and  _243
REMARK   95  A    between atoms: _243  and  _244
REMARK   96  A    between atoms: _246  and  _248
REMARK   97  A    between atoms: _248  and  _249
REMARK   98  A    between atoms: _248  and  _251
REMARK   99  A    between atoms: _251  and  _252
REMARK  100  A    between atoms: _257  and  _258
REMARK  101  A    between atoms: _260  and  _262
REMARK  102  A    between atoms: _262  and  _263
REMARK  103  A    between atoms: _262  and  _265
REMARK  104  A    between atoms: _265  and  _266
REMARK  105  A    between atoms: _269  and  _271
REMARK  106  A    between atoms: _271  and  _272
REMARK  107  A    between atoms: _271  and  _274
REMARK  108  A    between atoms: _274  and  _275
REMARK  109  A    between atoms: _275  and  _491
REMARK  110  A    between atoms: _276  and  _278
REMARK  111  A    between atoms: _278  and  _279
REMARK  112  A    between atoms: _278  and  _281
REMARK  113  A    between atoms: _281  and  _282
REMARK  114  A    between atoms: _285  and  _287
REMARK  115  A    between atoms: _287  and  _288
REMARK  116  A    between atoms: _287  and  _290
REMARK  117  A    between atoms: _290  and  _291
REMARK  118  A    between atoms: _296  and  _297
REMARK  119  A    between atoms: _299  and  _301
REMARK  120  A    between atoms: _301  and  _302
REMARK  121  A    between atoms: _301  and  _304
REMARK  122  A    between atoms: _304  and  _305
REMARK  123  A    between atoms: _310  and  _311
REMARK  124  A    between atoms: _313  and  _315
REMARK  125  A    between atoms: _315  and  _316
REMARK  126  A    between atoms: _315  and  _318
REMARK  127  A    between atoms: _318  and  _319
REMARK  128  A    between atoms: _319  and  _320
REMARK  129  A    between atoms: _323  and  _325
REMARK  130  A    between atoms: _325  and  _326
REMARK  131  A    between atoms: _325  and  _328
REMARK  132  A    between atoms: _328  and  _329
REMARK  133  A    between atoms: _334  and  _335
REMARK  134  A    between atoms: _337  and  _339
REMARK  135  A    between atoms: _339  and  _340
REMARK  136  A    between atoms: _339  and  _342
REMARK  137  A    between atoms: _342  and  _343
REMARK  138  A    between atoms: _348  and  _350
REMARK  139  A    between atoms: _350  and  _351
REMARK  140  A    between atoms: _350  and  _353
REMARK  141  A    between atoms: _353  and  _354
REMARK  142  A    between atoms: _356  and  _358
REMARK  143  A    between atoms: _358  and  _359
REMARK  144  A    between atoms: _358  and  _361
REMARK  145  A    between atoms: _361  and  _362
REMARK  146  A    between atoms: _365  and  _367
REMARK  147  A    between atoms: _367  and  _368
REMARK  148  A    between atoms: _367  and  _370
REMARK  149  A    between atoms: _370  and  _371
REMARK  150  A    between atoms: _376  and  _378
REMARK  151  A    between atoms: _378  and  _379
REMARK  152  A    between atoms: _378  and  _381
REMARK  153  A    between atoms: _381  and  _382
REMARK  154  A    between atoms: _392  and  _394
REMARK  155  A    between atoms: _394  and  _395
REMARK  156  A    between atoms: _394  and  _397
REMARK  157  A    between atoms: _397  and  _398
REMARK  158  A    between atoms: _404  and  _406
REMARK  159  A    between atoms: _406  and  _407
REMARK  160  A    between atoms: _406  and  _409
REMARK  161  A    between atoms: _409  and  _410
REMARK  162  A    between atoms: _413  and  _415
REMARK  163  A    between atoms: _415  and  _416
REMARK  164  A    between atoms: _415  and  _418
REMARK  165  A    between atoms: _418  and  _419
REMARK  166  A    between atoms: _419  and  _420
REMARK  167  A    between atoms: _420  and  _421
REMARK  168  A    between atoms: _430  and  _432
REMARK  169  A    between atoms: _432  and  _433
REMARK  170  A    between atoms: _432  and  _435
REMARK  171  A    between atoms: _435  and  _436
REMARK  172  A    between atoms: _441  and  _443
REMARK  173  A    between atoms: _443  and  _444
REMARK  174  A    between atoms: _443  and  _446
REMARK  175  A    between atoms: _446  and  _447
REMARK  176  A    between atoms: _447  and  _448
REMARK  177  A    between atoms: _448  and  _449
REMARK  178  A    between atoms: _458  and  _460
REMARK  179  A    between atoms: _460  and  _461
REMARK  180  A    between atoms: _464  and  _466
REMARK  181  A    between atoms: _466  and  _467
REMARK  182  A    between atoms: _469  and  _471
REMARK  183  A    between atoms: _471  and  _472
REMARK  184  A    between atoms: _471  and  _474
REMARK  185  A    between atoms: _474  and  _475
REMARK  186  A    between atoms: _485  and  _487
REMARK  187  A    between atoms: _487  and  _488
REMARK  188  A    between atoms: _487  and  _490
REMARK  189  A    between atoms: _490  and  _491
REMARK  190  A    between atoms: _492  and  _494
REMARK  191  A    between atoms: _494  and  _495
REMARK  192  A    between atoms: _498  and  _500
REMARK  193  A    between atoms: _500  and  _501
REMARK  194  A    between atoms: _500  and  _503
REMARK  195  A    between atoms: _503  and  _504
REMARK  196  A    between atoms: _507  and  _509
REMARK  197  A    between atoms: _509  and  _510
REMARK  198  A    between atoms: _509  and  _512
REMARK  199  A    between atoms: _512  and  _513
REMARK  200  A    between atoms: _518  and  _519
REMARK  201  A    between atoms: _521  and  _523
REMARK  202  A    between atoms: _523  and  _524
REMARK  203  A    between atoms: _523  and  _526
REMARK  204  A    between atoms: _526  and  _527
REMARK  205  A    between atoms: _529  and  _531
REMARK  206  A    between atoms: _531  and  _532
REMARK  207  A    between atoms: _531  and  _534
REMARK  208  A    between atoms: _534  and  _535
REMARK  209  A    between atoms: _541  and  _543
REMARK  210  A    between atoms: _543  and  _544
REMARK  211  A    between atoms: _543  and  _546
REMARK  212  A    between atoms: _546  and  _547
REMARK  213  A    between atoms: _550  and  _552
REMARK  214  A    between atoms: _552  and  _553
REMARK  215  A    between atoms: _552  and  _555
REMARK  216  A    between atoms: _555  and  _556
REMARK  217  A    between atoms: _556  and  _557
REMARK  218  A    between atoms: _559  and  _561
REMARK  219  A    between atoms: _561  and  _562
REMARK  220  A    between atoms: _561  and  _564
REMARK  221  A    between atoms: _564  and  _565
REMARK  222  A    between atoms: _567  and  _569
REMARK  223  A    between atoms: _569  and  _570
REMARK  224  A    between atoms: _569  and  _572
REMARK  225  A    between atoms: _572  and  _573
REMARK  226  A    between atoms: _575  and  _577
REMARK  227  A    between atoms: _577  and  _578
REMARK  228  A    between atoms: _577  and  _580
REMARK  229  A    between atoms: _580  and  _581
REMARK  230  A    between atoms: _586  and  _588
REMARK  231  A    between atoms: _588  and  _589
REMARK  232  A    between atoms: _588  and  _591
REMARK  233  A    between atoms: _591  and  _592
REMARK  234  A    between atoms: _597  and  _599
REMARK  235  A    between atoms: _599  and  _600
REMARK  236  A    between atoms: _599  and  _602
REMARK  237  A    between atoms: _602  and  _603
REMARK  238  A    between atoms: _606  and  _608
REMARK  239  A    between atoms: _608  and  _609
REMARK  240  A    between atoms: _612  and  _614
REMARK  241  A    between atoms: _614  and  _615
REMARK  242  A    between atoms: _614  and  _617
REMARK  243  A    between atoms: _617  and  _618
REMARK  244  A    between atoms: _623  and  _625
REMARK  245  A    between atoms: _625  and  _626
REMARK  246  A    between atoms: _625  and  _628
REMARK  247  A    between atoms: _628  and  _629
REMARK  248  A    between atoms: _632  and  _634
REMARK  249  A    between atoms: _634  and  _635
REMARK  250  A    between atoms: _634  and  _637
REMARK  251  A    between atoms: _637  and  _638
REMARK  252  A    between atoms: _643  and  _644
REMARK  253  A    between atoms: _646  and  _648
REMARK  254  A    between atoms: _648  and  _649
REMARK  255  A    between atoms: _648  and  _651
REMARK  256  A    between atoms: _651  and  _652
REMARK  257  A    between atoms: _657  and  _658
REMARK  258  A    between atoms: _660  and  _662
REMARK  259  A    between atoms: _662  and  _663
REMARK  260  A    between atoms: _662  and  _665
REMARK  261  A    between atoms: _668  and  _670
REMARK  262  A    between atoms: _670  and  _671
REMARK  263  A    between atoms: _670  and  _673
REMARK  264  A    between atoms: _673  and  _674
REMARK  265  A    between atoms: _679  and  _681
REMARK  266  A    between atoms: _681  and  _682
REMARK  267  A    between atoms: _685  and  _687
REMARK  268  A    between atoms: _687  and  _688
REMARK  269  A    between atoms: _687  and  _690
REMARK  270  A    between atoms: _690  and  _691
REMARK  271  A    between atoms: _691  and  _692
REMARK  272  A    between atoms: _692  and  _693
REMARK  273  A    between atoms: _702  and  _704
REMARK  274  A    between atoms: _704  and  _705
REMARK  275  A    between atoms: _704  and  _707
REMARK  276  A    between atoms: _707  and  _708
REMARK  277  A    between atoms: _711  and  _713
REMARK  278  A    between atoms: _713  and  _714
REMARK  279  A    between atoms: _713  and  _716
REMARK  280  A    between atoms: _716  and  _717
REMARK  281  A    between atoms: _720  and  _722
REMARK  282  A    between atoms: _722  and  _723
REMARK  283  A    between atoms: _722  and  _725
REMARK  284  A    between atoms: _725  and  _726
REMARK                            x       y       z     vdW  Elec       q    Type
REMARK                         _______ _______ _______ _____ _____    ______ ____
ROOT
ATOM      1  O   HOH     1      -4.245  19.676  16.370  0.00  0.00    +0.000 OA
ENDROOT
TORSDOF 0
REMARK  Name = ../refined-set-2016/1b0h/1b0h_pocket.pdb
REMARK  284 active torsions:
REMARK  status: ('A' for Active; 'I' for Inactive)
REMARK    1  A    between atoms: _1  and  _3
REMARK    2  A    between atoms: _3  and  _4
REMARK    3  A    between atoms: _3  and  _6
REMARK    4  A    between atoms: _6  and  _7
REMARK    5  A    between atoms: _12  and  _14
REMARK    6  A    between atoms: _14  and  _15
REMARK    7  A    between atoms: _17  and  _19
REMARK    8  A    between atoms: _19  and  _20
REMARK    9  A    between atoms: _19  and  _22
REMARK   10  A    between atoms: _22  and  _23
REMARK   11  A    between atoms: _25  and  _27
REMARK   12  A    between atoms: _27  and  _28
REMARK   13  A    between atoms: _27  and  _30
REMARK   14  A    between atoms: _30  and  _31
REMARK   15  A    between atoms: _31  and  _32
REMARK   16  A    between atoms: _37  and  _39
REMARK   17  A    between atoms: _39  and  _40
REMARK   18  A    between atoms: _39  and  _42
REMARK   19  A    between atoms: _42  and  _43
REMARK   20  A    between atoms: _46  and  _48
REMARK   21  A    between atoms: _48  and  _49
REMARK   22  A    between atoms: _48  and  _51
REMARK   23  A    between atoms: _51  and  _52
REMARK   24  A    between atoms: _52  and  _53
REMARK   25  A    between atoms: _56  and  _58
REMARK   26  A    between atoms: _58  and  _59
REMARK   27  A    between atoms: _61  and  _63
REMARK   28  A    between atoms: _63  and  _64
REMARK   29  A    between atoms: _63  and  _66
REMARK   30  A    between atoms: _70  and  _71
REMARK   31  A    between atoms: _76  and  _78
REMARK   32  A    between atoms: _78  and  _79
REMARK   33  A    between atoms: _78  and  _81
REMARK   34  A    between atoms: _81  and  _82
REMARK   35  A    between atoms: _82  and  _83
REMARK   36  A    between atoms: _86  and  _88
REMARK   37  A    between atoms: _88  and  _89
REMARK   38  A    between atoms: _88  and  _91
REMARK   39  A    between atoms: _91  and  _92
REMARK   40  A    between atoms: _94  and  _96
REMARK   41  A    between atoms: _96  and  _97
REMARK   42  A    between atoms: _96  and  _99
REMARK   43  A    between atoms: _99  and  _100
REMARK   44  A    between atoms: _105  and  _107
REMARK   45  A    between atoms: _107  and  _108
REMARK   46  A    between atoms: _107  and  _110
REMARK   47  A    between atoms: _110  and  _111
REMARK   48  A    between atoms: _111  and  _112
REMARK   49  A    between atoms: _112  and  _113
REMARK   50  A    between atoms: _123  and  _124
REMARK   51  A    between atoms: _129  and  _131
REMARK   52  A    between atoms: _131  and  _132
REMARK   53  A    between atoms: _131  and  _134
REMARK   54  A    between atoms: _134  and  _135
REMARK   55  A    between atoms: _140  and  _141
REMARK   56  A    between atoms: _143  and  _145
REMARK   57  A    between atoms: _145  and  _146
REMARK   58  A    between atoms: _145  and  _148
REMARK   59  A    between atoms: _148  and  _149
REMARK   60  A    between atoms: _154  and  _155
REMARK   61  A    between atoms: _157  and  _159
REMARK   62  A    between atoms: _159  and  _160
REMARK   63  A    between atoms: _159  and  _162
REMARK   64  A    between atoms: _165  and  _167
REMARK   65  A    between atoms: _167  and  _168
REMARK   66  A    between atoms: _167  and  _170
REMARK   67  A    between atoms: _170  and  _171
REMARK   68  A    between atoms: _177  and  _178
REMARK   69  A    between atoms: _183  and  _185
REMARK   70  A    between atoms: _185  and  _186
REMARK   71  A    between atoms: _185  and  _188
REMARK   72  A    between atoms: _188  and  _189
REMARK   73  A    between atoms: _191  and  _193
REMARK   74  A    between atoms: _193  and  _194
REMARK   75  A    between atoms: _193  and  _196
REMARK   76  A    between atoms: _196  and  _197
REMARK   77  A    between atoms: _197  and  _198
REMARK   78  A    between atoms: _201  and  _203
REMARK   79  A    between atoms: _203  and  _204
REMARK   80  A    between atoms: _203  and  _206
REMARK   81  A    between atoms: _206  and  _207
REMARK   82  A    between atoms: _212  and  _213
REMARK   83  A    between atoms: _215  and  _217
REMARK   84  A    between atoms: _217  and  _218
REMARK   85  A    between atoms: _217  and  _220
REMARK   86  A    between atoms: _220  and  _221
REMARK   87  A    between atoms: _226  and  _228
REMARK   88  A    between atoms: _228  and  _229
REMARK   89  A    between atoms: _228  and  _231
REMARK   90  A    between atoms: _231  and  _232
REMARK   91  A    between atoms: _237  and  _239
REMARK   92  A    between atoms: _239  and  _240
REMARK   93  A    between atoms: _239  and  _242
REMARK   94  A    between atoms: _242  and  _243
REMARK   95  A    between atoms: _243  and  _244
REMARK   96  A    between atoms: _246  and  _248
REMARK   97  A    between atoms: _248  and  _249
REMARK   98  A    between atoms: _248  and  _251
REMARK   99  A    between atoms: _251  and  _252
REMARK  100  A    between atoms: _257  and  _258
REMARK  101  A    between atoms: _260  and  _262
REMARK  102  A    between atoms: _262  and  _263
REMARK  103  A    between atoms: _262  and  _265
REMARK  104  A    between atoms: _265  and  _266
REMARK  105  A    between atoms: _269  and  _271
REMARK  106  A    between atoms: _271  and  _272
REMARK  107  A    between atoms: _271  and  _274
REMARK  108  A    between atoms: _274  and  _275
REMARK  109  A    between atoms: _275  and  _491
REMARK  110  A    between atoms: _276  and  _278
REMARK  111  A    between atoms: _278  and  _279
REMARK  112  A    between atoms: _278  and  _281
REMARK  113  A    between atoms: _281  and  _282
REMARK  114  A    between atoms: _285  and  _287
REMARK  115  A    between atoms: _287  and  _288
REMARK  116  A    between atoms: _287  and  _290
REMARK  117  A    between atoms: _290  and  _291
REMARK  118  A    between atoms: _296  and  _297
REMARK  119  A    between atoms: _299  and  _301
REMARK  120  A    between atoms: _301  and  _302
REMARK  121  A    between atoms: _301  and  _304
REMARK  122  A    between atoms: _304  and  _305
REMARK  123  A    between atoms: _310  and  _311
REMARK  124  A    between atoms: _313  and  _315
REMARK  125  A    between atoms: _315  and  _316
REMARK  126  A    between atoms: _315  and  _318
REMARK  127  A    between atoms: _318  and  _319
REMARK  128  A    between atoms: _319  and  _320
REMARK  129  A    between atoms: _323  and  _325
REMARK  130  A    between atoms: _325  and  _326
REMARK  131  A    between atoms: _325  and  _328
REMARK  132  A    between atoms: _328  and  _329
REMARK  133  A    between atoms: _334  and  _335
REMARK  134  A    between atoms: _337  and  _339
REMARK  135  A    between atoms: _339  and  _340
REMARK  136  A    between atoms: _339  and  _342
REMARK  137  A    between atoms: _342  and  _343
REMARK  138  A    between atoms: _348  and  _350
REMARK  139  A    between atoms: _350  and  _351
REMARK  140  A    between atoms: _350  and  _353
REMARK  141  A    between atoms: _353  and  _354
REMARK  142  A    between atoms: _356  and  _358
REMARK  143  A    between atoms: _358  and  _359
REMARK  144  A    between atoms: _358  and  _361
REMARK  145  A    between atoms: _361  and  _362
REMARK  146  A    between atoms: _365  and  _367
REMARK  147  A    between atoms: _367  and  _368
REMARK  148  A    between atoms: _367  and  _370
REMARK  149  A    between atoms: _370  and  _371
REMARK  150  A    between atoms: _376  and  _378
REMARK  151  A    between atoms: _378  and  _379
REMARK  152  A    between atoms: _378  and  _381
REMARK  153  A    between atoms: _381  and  _382
REMARK  154  A    between atoms: _392  and  _394
REMARK  155  A    between atoms: _394  and  _395
REMARK  156  A    between atoms: _394  and  _397
REMARK  157  A    between atoms: _397  and  _398
REMARK  158  A    between atoms: _404  and  _406
REMARK  159  A    between atoms: _406  and  _407
REMARK  160  A    between atoms: _406  and  _409
REMARK  161  A    between atoms: _409  and  _410
REMARK  162  A    between atoms: _413  and  _415
REMARK  163  A    between atoms: _415  and  _416
REMARK  164  A    between atoms: _415  and  _418
REMARK  165  A    between atoms: _418  and  _419
REMARK  166  A    between atoms: _419  and  _420
REMARK  167  A    between atoms: _420  and  _421
REMARK  168  A    between atoms: _430  and  _432
REMARK  169  A    between atoms: _432  and  _433
REMARK  170  A    between atoms: _432  and  _435
REMARK  171  A    between atoms: _435  and  _436
REMARK  172  A    between atoms: _441  and  _443
REMARK  173  A    between atoms: _443  and  _444
REMARK  174  A    between atoms: _443  and  _446
REMARK  175  A    between atoms: _446  and  _447
REMARK  176  A    between atoms: _447  and  _448
REMARK  177  A    between atoms: _448  and  _449
REMARK  178  A    between atoms: _458  and  _460
REMARK  179  A    between atoms: _460  and  _461
REMARK  180  A    between atoms: _464  and  _466
REMARK  181  A    between atoms: _466  and  _467
REMARK  182  A    between atoms: _469  and  _471
REMARK  183  A    between atoms: _471  and  _472
REMARK  184  A    between atoms: _471  and  _474
REMARK  185  A    between atoms: _474  and  _475
REMARK  186  A    between atoms: _485  and  _487
REMARK  187  A    between atoms: _487  and  _488
REMARK  188  A    between atoms: _487  and  _490
REMARK  189  A    between atoms: _490  and  _491
REMARK  190  A    between atoms: _492  and  _494
REMARK  191  A    between atoms: _494  and  _495
REMARK  192  A    between atoms: _498  and  _500
REMARK  193  A    between atoms: _500  and  _501
REMARK  194  A    between atoms: _500  and  _503
REMARK  195  A    between atoms: _503  and  _504
REMARK  196  A    between atoms: _507  and  _509
REMARK  197  A    between atoms: _509  and  _510
REMARK  198  A    between atoms: _509  and  _512
REMARK  199  A    between atoms: _512  and  _513
REMARK  200  A    between atoms: _518  and  _519
REMARK  201  A    between atoms: _521  and  _523
REMARK  202  A    between atoms: _523  and  _524
REMARK  203  A    between atoms: _523  and  _526
REMARK  204  A    between atoms: _526  and  _527
REMARK  205  A    between atoms: _529  and  _531
REMARK  206  A    between atoms: _531  and  _532
REMARK  207  A    between atoms: _531  and  _534
REMARK  208  A    between atoms: _534  and  _535
REMARK  209  A    between atoms: _541  and  _543
REMARK  210  A    between atoms: _543  and  _544
REMARK  211  A    between atoms: _543  and  _546
REMARK  212  A    between atoms: _546  and  _547
REMARK  213  A    between atoms: _550  and  _552
REMARK  214  A    between atoms: _552  and  _553
REMARK  215  A    between atoms: _552  and  _555
REMARK  216  A    between atoms: _555  and  _556
REMARK  217  A    between atoms: _556  and  _557
REMARK  218  A    between atoms: _559  and  _561
REMARK  219  A    between atoms: _561  and  _562
REMARK  220  A    between atoms: _561  and  _564
REMARK  221  A    between atoms: _564  and  _565
REMARK  222  A    between atoms: _567  and  _569
REMARK  223  A    between atoms: _569  and  _570
REMARK  224  A    between atoms: _569  and  _572
REMARK  225  A    between atoms: _572  and  _573
REMARK  226  A    between atoms: _575  and  _577
REMARK  227  A    between atoms: _577  and  _578
REMARK  228  A    between atoms: _577  and  _580
REMARK  229  A    between atoms: _580  and  _581
REMARK  230  A    between atoms: _586  and  _588
REMARK  231  A    between atoms: _588  and  _589
REMARK  232  A    between atoms: _588  and  _591
REMARK  233  A    between atoms: _591  and  _592
REMARK  234  A    between atoms: _597  and  _599
REMARK  235  A    between atoms: _599  and  _600
REMARK  236  A    between atoms: _599  and  _602
REMARK  237  A    between atoms: _602  and  _603
REMARK  238  A    between atoms: _606  and  _608
REMARK  239  A    between atoms: _608  and  _609
REMARK  240  A    between atoms: _612  and  _614
REMARK  241  A    between atoms: _614  and  _615
REMARK  242  A    between atoms: _614  and  _617
REMARK  243  A    between atoms: _617  and  _618
REMARK  244  A    between atoms: _623  and  _625
REMARK  245  A    between atoms: _625  and  _626
REMARK  246  A    between atoms: _625  and  _628
REMARK  247  A    between atoms: _628  and  _629
REMARK  248  A    between atoms: _632  and  _634
REMARK  249  A    between atoms: _634  and  _635
REMARK  250  A    between atoms: _634  and  _637
REMARK  251  A    between atoms: _637  and  _638
REMARK  252  A    between atoms: _643  and  _644
REMARK  253  A    between atoms: _646  and  _648
REMARK  254  A    between atoms: _648  and  _649
REMARK  255  A    between atoms: _648  and  _651
REMARK  256  A    between atoms: _651  and  _652
REMARK  257  A    between atoms: _657  and  _658
REMARK  258  A    between atoms: _660  and  _662
REMARK  259  A    between atoms: _662  and  _663
REMARK  260  A    between atoms: _662  and  _665
REMARK  261  A    between atoms: _668  and  _670
REMARK  262  A    between atoms: _670  and  _671
REMARK  263  A    between atoms: _670  and  _673
REMARK  264  A    between atoms: _673  and  _674
REMARK  265  A    between atoms: _679  and  _681
REMARK  266  A    between atoms: _681  and  _682
REMARK  267  A    between atoms: _685  and  _687
REMARK  268  A    between atoms: _687  and  _688
REMARK  269  A    between atoms: _687  and  _690
REMARK  270  A    between atoms: _690  and  _691
REMARK  271  A    between atoms: _691  and  _692
REMARK  272  A    between atoms: _692  and  _693
REMARK  273  A    between atoms: _702  and  _704
REMARK  274  A    between atoms: _704  and  _705
REMARK  275  A    between atoms: _704  and  _707
REMARK  276  A    between atoms: _707  and  _708
REMARK  277  A    between atoms: _711  and  _713
REMARK  278  A    between atoms: _713  and  _714
REMARK  279  A    between atoms: _713  and  _716
REMARK  280  A    between atoms: _716  and  _717
REMARK  281  A    between atoms: _720  and  _722
REMARK  282  A    between atoms: _722  and  _723
REMARK  283  A    between atoms: _722  and  _725
REMARK  284  A    between atoms: _725  and  _726
REMARK                            x       y       z     vdW  Elec       q    Type
REMARK                         _______ _______ _______ _____ _____    ______ ____
ROOT
ATOM      1  O   HOH     1      -1.988  16.838   7.610  0.00  0.00    +0.000 OA
ENDROOT
TORSDOF 0
REMARK  Name = ../refined-set-2016/1b0h/1b0h_pocket.pdb
REMARK  284 active torsions:
REMARK  status: ('A' for Active; 'I' for Inactive)
REMARK    1  A    between atoms: _1  and  _3
REMARK    2  A    between atoms: _3  and  _4
REMARK    3  A    between atoms: _3  and  _6
REMARK    4  A    between atoms: _6  and  _7
REMARK    5  A    between atoms: _12  and  _14
REMARK    6  A    between atoms: _14  and  _15
REMARK    7  A    between atoms: _17  and  _19
REMARK    8  A    between atoms: _19  and  _20
REMARK    9  A    between atoms: _19  and  _22
REMARK   10  A    between atoms: _22  and  _23
REMARK   11  A    between atoms: _25  and  _27
REMARK   12  A    between atoms: _27  and  _28
REMARK   13  A    between atoms: _27  and  _30
REMARK   14  A    between atoms: _30  and  _31
REMARK   15  A    between atoms: _31  and  _32
REMARK   16  A    between atoms: _37  and  _39
REMARK   17  A    between atoms: _39  and  _40
REMARK   18  A    between atoms: _39  and  _42
REMARK   19  A    between atoms: _42  and  _43
REMARK   20  A    between atoms: _46  and  _48
REMARK   21  A    between atoms: _48  and  _49
REMARK   22  A    between atoms: _48  and  _51
REMARK   23  A    between atoms: _51  and  _52
REMARK   24  A    between atoms: _52  and  _53
REMARK   25  A    between atoms: _56  and  _58
REMARK   26  A    between atoms: _58  and  _59
REMARK   27  A    between atoms: _61  and  _63
REMARK   28  A    between atoms: _63  and  _64
REMARK   29  A    between atoms: _63  and  _66
REMARK   30  A    between atoms: _70  and  _71
REMARK   31  A    between atoms: _76  and  _78
REMARK   32  A    between atoms: _78  and  _79
REMARK   33  A    between atoms: _78  and  _81
REMARK   34  A    between atoms: _81  and  _82
REMARK   35  A    between atoms: _82  and  _83
REMARK   36  A    between atoms: _86  and  _88
REMARK   37  A    between atoms: _88  and  _89
REMARK   38  A    between atoms: _88  and  _91
REMARK   39  A    between atoms: _91  and  _92
REMARK   40  A    between atoms: _94  and  _96
REMARK   41  A    between atoms: _96  and  _97
REMARK   42  A    between atoms: _96  and  _99
REMARK   43  A    between atoms: _99  and  _100
REMARK   44  A    between atoms: _105  and  _107
REMARK   45  A    between atoms: _107  and  _108
REMARK   46  A    between atoms: _107  and  _110
REMARK   47  A    between atoms: _110  and  _111
REMARK   48  A    between atoms: _111  and  _112
REMARK   49  A    between atoms: _112  and  _113
REMARK   50  A    between atoms: _123  and  _124
REMARK   51  A    between atoms: _129  and  _131
REMARK   52  A    between atoms: _131  and  _132
REMARK   53  A    between atoms: _131  and  _134
REMARK   54  A    between atoms: _134  and  _135
REMARK   55  A    between atoms: _140  and  _141
REMARK   56  A    between atoms: _143  and  _145
REMARK   57  A    between atoms: _145  and  _146
REMARK   58  A    between atoms: _145  and  _148
REMARK   59  A    between atoms: _148  and  _149
REMARK   60  A    between atoms: _154  and  _155
REMARK   61  A    between atoms: _157  and  _159
REMARK   62  A    between atoms: _159  and  _160
REMARK   63  A    between atoms: _159  and  _162
REMARK   64  A    between atoms: _165  and  _167
REMARK   65  A    between atoms: _167  and  _168
REMARK   66  A    between atoms: _167  and  _170
REMARK   67  A    between atoms: _170  and  _171
REMARK   68  A    between atoms: _177  and  _178
REMARK   69  A    between atoms: _183  and  _185
REMARK   70  A    between atoms: _185  and  _186
REMARK   71  A    between atoms: _185  and  _188
REMARK   72  A    between atoms: _188  and  _189
REMARK   73  A    between atoms: _191  and  _193
REMARK   74  A    between atoms: _193  and  _194
REMARK   75  A    between atoms: _193  and  _196
REMARK   76  A    between atoms: _196  and  _197
REMARK   77  A    between atoms: _197  and  _198
REMARK   78  A    between atoms: _201  and  _203
REMARK   79  A    between atoms: _203  and  _204
REMARK   80  A    between atoms: _203  and  _206
REMARK   81  A    between atoms: _206  and  _207
REMARK   82  A    between atoms: _212  and  _213
REMARK   83  A    between atoms: _215  and  _217
REMARK   84  A    between atoms: _217  and  _218
REMARK   85  A    between atoms: _217  and  _220
REMARK   86  A    between atoms: _220  and  _221
REMARK   87  A    between atoms: _226  and  _228
REMARK   88  A    between atoms: _228  and  _229
REMARK   89  A    between atoms: _228  and  _231
REMARK   90  A    between atoms: _231  and  _232
REMARK   91  A    between atoms: _237  and  _239
REMARK   92  A    between atoms: _239  and  _240
REMARK   93  A    between atoms: _239  and  _242
REMARK   94  A    between atoms: _242  and  _243
REMARK   95  A    between atoms: _243  and  _244
REMARK   96  A    between atoms: _246  and  _248
REMARK   97  A    between atoms: _248  and  _249
REMARK   98  A    between atoms: _248  and  _251
REMARK   99  A    between atoms: _251  and  _252
REMARK  100  A    between atoms: _257  and  _258
REMARK  101  A    between atoms: _260  and  _262
REMARK  102  A    between atoms: _262  and  _263
REMARK  103  A    between atoms: _262  and  _265
REMARK  104  A    between atoms: _265  and  _266
REMARK  105  A    between atoms: _269  and  _271
REMARK  106  A    between atoms: _271  and  _272
REMARK  107  A    between atoms: _271  and  _274
REMARK  108  A    between atoms: _274  and  _275
REMARK  109  A    between atoms: _275  and  _491
REMARK  110  A    between atoms: _276  and  _278
REMARK  111  A    between atoms: _278  and  _279
REMARK  112  A    between atoms: _278  and  _281
REMARK  113  A    between atoms: _281  and  _282
REMARK  114  A    between atoms: _285  and  _287
REMARK  115  A    between atoms: _287  and  _288
REMARK  116  A    between atoms: _287  and  _290
REMARK  117  A    between atoms: _290  and  _291
REMARK  118  A    between atoms: _296  and  _297
REMARK  119  A    between atoms: _299  and  _301
REMARK  120  A    between atoms: _301  and  _302
REMARK  121  A    between atoms: _301  and  _304
REMARK  122  A    between atoms: _304  and  _305
REMARK  123  A    between atoms: _310  and  _311
REMARK  124  A    between atoms: _313  and  _315
REMARK  125  A    between atoms: _315  and  _316
REMARK  126  A    between atoms: _315  and  _318
REMARK  127  A    between atoms: _318  and  _319
REMARK  128  A    between atoms: _319  and  _320
REMARK  129  A    between atoms: _323  and  _325
REMARK  130  A    between atoms: _325  and  _326
REMARK  131  A    between atoms: _325  and  _328
REMARK  132  A    between atoms: _328  and  _329
REMARK  133  A    between atoms: _334  and  _335
REMARK  134  A    between atoms: _337  and  _339
REMARK  135  A    between atoms: _339  and  _340
REMARK  136  A    between atoms: _339  and  _342
REMARK  137  A    between atoms: _342  and  _343
REMARK  138  A    between atoms: _348  and  _350
REMARK  139  A    between atoms: _350  and  _351
REMARK  140  A    between atoms: _350  and  _353
REMARK  141  A    between atoms: _353  and  _354
REMARK  142  A    between atoms: _356  and  _358
REMARK  143  A    between atoms: _358  and  _359
REMARK  144  A    between atoms: _358  and  _361
REMARK  145  A    between atoms: _361  and  _362
REMARK  146  A    between atoms: _365  and  _367
REMARK  147  A    between atoms: _367  and  _368
REMARK  148  A    between atoms: _367  and  _370
REMARK  149  A    between atoms: _370  and  _371
REMARK  150  A    between atoms: _376  and  _378
REMARK  151  A    between atoms: _378  and  _379
REMARK  152  A    between atoms: _378  and  _381
REMARK  153  A    between atoms: _381  and  _382
REMARK  154  A    between atoms: _392  and  _394
REMARK  155  A    between atoms: _394  and  _395
REMARK  156  A    between atoms: _394  and  _397
REMARK  157  A    between atoms: _397  and  _398
REMARK  158  A    between atoms: _404  and  _406
REMARK  159  A    between atoms: _406  and  _407
REMARK  160  A    between atoms: _406  and  _409
REMARK  161  A    between atoms: _409  and  _410
REMARK  162  A    between atoms: _413  and  _415
REMARK  163  A    between atoms: _415  and  _416
REMARK  164  A    between atoms: _415  and  _418
REMARK  165  A    between atoms: _418  and  _419
REMARK  166  A    between atoms: _419  and  _420
REMARK  167  A    between atoms: _420  and  _421
REMARK  168  A    between atoms: _430  and  _432
REMARK  169  A    between atoms: _432  and  _433
REMARK  170  A    between atoms: _432  and  _435
REMARK  171  A    between atoms: _435  and  _436
REMARK  172  A    between atoms: _441  and  _443
REMARK  173  A    between atoms: _443  and  _444
REMARK  174  A    between atoms: _443  and  _446
REMARK  175  A    between atoms: _446  and  _447
REMARK  176  A    between atoms: _447  and  _448
REMARK  177  A    between atoms: _448  and  _449
REMARK  178  A    between atoms: _458  and  _460
REMARK  179  A    between atoms: _460  and  _461
REMARK  180  A    between atoms: _464  and  _466
REMARK  181  A    between atoms: _466  and  _467
REMARK  182  A    between atoms: _469  and  _471
REMARK  183  A    between atoms: _471  and  _472
REMARK  184  A    between atoms: _471  and  _474
REMARK  185  A    between atoms: _474  and  _475
REMARK  186  A    between atoms: _485  and  _487
REMARK  187  A    between atoms: _487  and  _488
REMARK  188  A    between atoms: _487  and  _490
REMARK  189  A    between atoms: _490  and  _491
REMARK  190  A    between atoms: _492  and  _494
REMARK  191  A    between atoms: _494  and  _495
REMARK  192  A    between atoms: _498  and  _500
REMARK  193  A    between atoms: _500  and  _501
REMARK  194  A    between atoms: _500  and  _503
REMARK  195  A    between atoms: _503  and  _504
REMARK  196  A    between atoms: _507  and  _509
REMARK  197  A    between atoms: _509  and  _510
REMARK  198  A    between atoms: _509  and  _512
REMARK  199  A    between atoms: _512  and  _513
REMARK  200  A    between atoms: _518  and  _519
REMARK  201  A    between atoms: _521  and  _523
REMARK  202  A    between atoms: _523  and  _524
REMARK  203  A    between atoms: _523  and  _526
REMARK  204  A    between atoms: _526  and  _527
REMARK  205  A    between atoms: _529  and  _531
REMARK  206  A    between atoms: _531  and  _532
REMARK  207  A    between atoms: _531  and  _534
REMARK  208  A    between atoms: _534  and  _535
REMARK  209  A    between atoms: _541  and  _543
REMARK  210  A    between atoms: _543  and  _544
REMARK  211  A    between atoms: _543  and  _546
REMARK  212  A    between atoms: _546  and  _547
REMARK  213  A    between atoms: _550  and  _552
REMARK  214  A    between atoms: _552  and  _553
REMARK  215  A    between atoms: _552  and  _555
REMARK  216  A    between atoms: _555  and  _556
REMARK  217  A    between atoms: _556  and  _557
REMARK  218  A    between atoms: _559  and  _561
REMARK  219  A    between atoms: _561  and  _562
REMARK  220  A    between atoms: _561  and  _564
REMARK  221  A    between atoms: _564  and  _565
REMARK  222  A    between atoms: _567  and  _569
REMARK  223  A    between atoms: _569  and  _570
REMARK  224  A    between atoms: _569  and  _572
REMARK  225  A    between atoms: _572  and  _573
REMARK  226  A    between atoms: _575  and  _577
REMARK  227  A    between atoms: _577  and  _578
REMARK  228  A    between atoms: _577  and  _580
REMARK  229  A    between atoms: _580  and  _581
REMARK  230  A    between atoms: _586  and  _588
REMARK  231  A    between atoms: _588  and  _589
REMARK  232  A    between atoms: _588  and  _591
REMARK  233  A    between atoms: _591  and  _592
REMARK  234  A    between atoms: _597  and  _599
REMARK  235  A    between atoms: _599  and  _600
REMARK  236  A    between atoms: _599  and  _602
REMARK  237  A    between atoms: _602  and  _603
REMARK  238  A    between atoms: _606  and  _608
REMARK  239  A    between atoms: _608  and  _609
REMARK  240  A    between atoms: _612  and  _614
REMARK  241  A    between atoms: _614  and  _615
REMARK  242  A    between atoms: _614  and  _617
REMARK  243  A    between atoms: _617  and  _618
REMARK  244  A    between atoms: _623  and  _625
REMARK  245  A    between atoms: _625  and  _626
REMARK  246  A    between atoms: _625  and  _628
REMARK  247  A    between atoms: _628  and  _629
REMARK  248  A    between atoms: _632  and  _634
REMARK  249  A    between atoms: _634  and  _635
REMARK  250  A    between atoms: _634  and  _637
REMARK  251  A    between atoms: _637  and  _638
REMARK  252  A    between atoms: _643  and  _644
REMARK  253  A    between atoms: _646  and  _648
REMARK  254  A    between atoms: _648  and  _649
REMARK  255  A    between atoms: _648  and  _651
REMARK  256  A    between atoms: _651  and  _652
REMARK  257  A    between atoms: _657  and  _658
REMARK  258  A    between atoms: _660  and  _662
REMARK  259  A    between atoms: _662  and  _663
REMARK  260  A    between atoms: _662  and  _665
REMARK  261  A    between atoms: _668  and  _670
REMARK  262  A    between atoms: _670  and  _671
REMARK  263  A    between atoms: _670  and  _673
REMARK  264  A    between atoms: _673  and  _674
REMARK  265  A    between atoms: _679  and  _681
REMARK  266  A    between atoms: _681  and  _682
REMARK  267  A    between atoms: _685  and  _687
REMARK  268  A    between atoms: _687  and  _688
REMARK  269  A    between atoms: _687  and  _690
REMARK  270  A    between atoms: _690  and  _691
REMARK  271  A    between atoms: _691  and  _692
REMARK  272  A    between atoms: _692  and  _693
REMARK  273  A    between atoms: _702  and  _704
REMARK  274  A    between atoms: _704  and  _705
REMARK  275  A    between atoms: _704  and  _707
REMARK  276  A    between atoms: _707  and  _708
REMARK  277  A    between atoms: _711  and  _713
REMARK  278  A    between atoms: _713  and  _714
REMARK  279  A    between atoms: _713  and  _716
REMARK  280  A    between atoms: _716  and  _717
REMARK  281  A    between atoms: _720  and  _722
REMARK  282  A    between atoms: _722  and  _723
REMARK  283  A    between atoms: _722  and  _725
REMARK  284  A    between atoms: _725  and  _726
REMARK                            x       y       z     vdW  Elec       q    Type
REMARK                         _______ _______ _______ _____ _____    ______ ____
ROOT
ATOM      1  O   HOH     1       1.994  14.667   8.447  0.00  0.00    +0.000 OA
ENDROOT
TORSDOF 0
REMARK  Name = ../refined-set-2016/1b0h/1b0h_pocket.pdb
REMARK  284 active torsions:
REMARK  status: ('A' for Active; 'I' for Inactive)
REMARK    1  A    between atoms: _1  and  _3
REMARK    2  A    between atoms: _3  and  _4
REMARK    3  A    between atoms: _3  and  _6
REMARK    4  A    between atoms: _6  and  _7
REMARK    5  A    between atoms: _12  and  _14
REMARK    6  A    between atoms: _14  and  _15
REMARK    7  A    between atoms: _17  and  _19
REMARK    8  A    between atoms: _19  and  _20
REMARK    9  A    between atoms: _19  and  _22
REMARK   10  A    between atoms: _22  and  _23
REMARK   11  A    between atoms: _25  and  _27
REMARK   12  A    between atoms: _27  and  _28
REMARK   13  A    between atoms: _27  and  _30
REMARK   14  A    between atoms: _30  and  _31
REMARK   15  A    between atoms: _31  and  _32
REMARK   16  A    between atoms: _37  and  _39
REMARK   17  A    between atoms: _39  and  _40
REMARK   18  A    between atoms: _39  and  _42
REMARK   19  A    between atoms: _42  and  _43
REMARK   20  A    between atoms: _46  and  _48
REMARK   21  A    between atoms: _48  and  _49
REMARK   22  A    between atoms: _48  and  _51
REMARK   23  A    between atoms: _51  and  _52
REMARK   24  A    between atoms: _52  and  _53
REMARK   25  A    between atoms: _56  and  _58
REMARK   26  A    between atoms: _58  and  _59
REMARK   27  A    between atoms: _61  and  _63
REMARK   28  A    between atoms: _63  and  _64
REMARK   29  A    between atoms: _63  and  _66
REMARK   30  A    between atoms: _70  and  _71
REMARK   31  A    between atoms: _76  and  _78
REMARK   32  A    between atoms: _78  and  _79
REMARK   33  A    between atoms: _78  and  _81
REMARK   34  A    between atoms: _81  and  _82
REMARK   35  A    between atoms: _82  and  _83
REMARK   36  A    between atoms: _86  and  _88
REMARK   37  A    between atoms: _88  and  _89
REMARK   38  A    between atoms: _88  and  _91
REMARK   39  A    between atoms: _91  and  _92
REMARK   40  A    between atoms: _94  and  _96
REMARK   41  A    between atoms: _96  and  _97
REMARK   42  A    between atoms: _96  and  _99
REMARK   43  A    between atoms: _99  and  _100
REMARK   44  A    between atoms: _105  and  _107
REMARK   45  A    between atoms: _107  and  _108
REMARK   46  A    between atoms: _107  and  _110
REMARK   47  A    between atoms: _110  and  _111
REMARK   48  A    between atoms: _111  and  _112
REMARK   49  A    between atoms: _112  and  _113
REMARK   50  A    between atoms: _123  and  _124
REMARK   51  A    between atoms: _129  and  _131
REMARK   52  A    between atoms: _131  and  _132
REMARK   53  A    between atoms: _131  and  _134
REMARK   54  A    between atoms: _134  and  _135
REMARK   55  A    between atoms: _140  and  _141
REMARK   56  A    between atoms: _143  and  _145
REMARK   57  A    between atoms: _145  and  _146
REMARK   58  A    between atoms: _145  and  _148
REMARK   59  A    between atoms: _148  and  _149
REMARK   60  A    between atoms: _154  and  _155
REMARK   61  A    between atoms: _157  and  _159
REMARK   62  A    between atoms: _159  and  _160
REMARK   63  A    between atoms: _159  and  _162
REMARK   64  A    between atoms: _165  and  _167
REMARK   65  A    between atoms: _167  and  _168
REMARK   66  A    between atoms: _167  and  _170
REMARK   67  A    between atoms: _170  and  _171
REMARK   68  A    between atoms: _177  and  _178
REMARK   69  A    between atoms: _183  and  _185
REMARK   70  A    between atoms: _185  and  _186
REMARK   71  A    between atoms: _185  and  _188
REMARK   72  A    between atoms: _188  and  _189
REMARK   73  A    between atoms: _191  and  _193
REMARK   74  A    between atoms: _193  and  _194
REMARK   75  A    between atoms: _193  and  _196
REMARK   76  A    between atoms: _196  and  _197
REMARK   77  A    between atoms: _197  and  _198
REMARK   78  A    between atoms: _201  and  _203
REMARK   79  A    between atoms: _203  and  _204
REMARK   80  A    between atoms: _203  and  _206
REMARK   81  A    between atoms: _206  and  _207
REMARK   82  A    between atoms: _212  and  _213
REMARK   83  A    between atoms: _215  and  _217
REMARK   84  A    between atoms: _217  and  _218
REMARK   85  A    between atoms: _217  and  _220
REMARK   86  A    between atoms: _220  and  _221
REMARK   87  A    between atoms: _226  and  _228
REMARK   88  A    between atoms: _228  and  _229
REMARK   89  A    between atoms: _228  and  _231
REMARK   90  A    between atoms: _231  and  _232
REMARK   91  A    between atoms: _237  and  _239
REMARK   92  A    between atoms: _239  and  _240
REMARK   93  A    between atoms: _239  and  _242
REMARK   94  A    between atoms: _242  and  _243
REMARK   95  A    between atoms: _243  and  _244
REMARK   96  A    between atoms: _246  and  _248
REMARK   97  A    between atoms: _248  and  _249
REMARK   98  A    between atoms: _248  and  _251
REMARK   99  A    between atoms: _251  and  _252
REMARK  100  A    between atoms: _257  and  _258
REMARK  101  A    between atoms: _260  and  _262
REMARK  102  A    between atoms: _262  and  _263
REMARK  103  A    between atoms: _262  and  _265
REMARK  104  A    between atoms: _265  and  _266
REMARK  105  A    between atoms: _269  and  _271
REMARK  106  A    between atoms: _271  and  _272
REMARK  107  A    between atoms: _271  and  _274
REMARK  108  A    between atoms: _274  and  _275
REMARK  109  A    between atoms: _275  and  _491
REMARK  110  A    between atoms: _276  and  _278
REMARK  111  A    between atoms: _278  and  _279
REMARK  112  A    between atoms: _278  and  _281
REMARK  113  A    between atoms: _281  and  _282
REMARK  114  A    between atoms: _285  and  _287
REMARK  115  A    between atoms: _287  and  _288
REMARK  116  A    between atoms: _287  and  _290
REMARK  117  A    between atoms: _290  and  _291
REMARK  118  A    between atoms: _296  and  _297
REMARK  119  A    between atoms: _299  and  _301
REMARK  120  A    between atoms: _301  and  _302
REMARK  121  A    between atoms: _301  and  _304
REMARK  122  A    between atoms: _304  and  _305
REMARK  123  A    between atoms: _310  and  _311
REMARK  124  A    between atoms: _313  and  _315
REMARK  125  A    between atoms: _315  and  _316
REMARK  126  A    between atoms: _315  and  _318
REMARK  127  A    between atoms: _318  and  _319
REMARK  128  A    between atoms: _319  and  _320
REMARK  129  A    between atoms: _323  and  _325
REMARK  130  A    between atoms: _325  and  _326
REMARK  131  A    between atoms: _325  and  _328
REMARK  132  A    between atoms: _328  and  _329
REMARK  133  A    between atoms: _334  and  _335
REMARK  134  A    between atoms: _337  and  _339
REMARK  135  A    between atoms: _339  and  _340
REMARK  136  A    between atoms: _339  and  _342
REMARK  137  A    between atoms: _342  and  _343
REMARK  138  A    between atoms: _348  and  _350
REMARK  139  A    between atoms: _350  and  _351
REMARK  140  A    between atoms: _350  and  _353
REMARK  141  A    between atoms: _353  and  _354
REMARK  142  A    between atoms: _356  and  _358
REMARK  143  A    between atoms: _358  and  _359
REMARK  144  A    between atoms: _358  and  _361
REMARK  145  A    between atoms: _361  and  _362
REMARK  146  A    between atoms: _365  and  _367
REMARK  147  A    between atoms: _367  and  _368
REMARK  148  A    between atoms: _367  and  _370
REMARK  149  A    between atoms: _370  and  _371
REMARK  150  A    between atoms: _376  and  _378
REMARK  151  A    between atoms: _378  and  _379
REMARK  152  A    between atoms: _378  and  _381
REMARK  153  A    between atoms: _381  and  _382
REMARK  154  A    between atoms: _392  and  _394
REMARK  155  A    between atoms: _394  and  _395
REMARK  156  A    between atoms: _394  and  _397
REMARK  157  A    between atoms: _397  and  _398
REMARK  158  A    between atoms: _404  and  _406
REMARK  159  A    between atoms: _406  and  _407
REMARK  160  A    between atoms: _406  and  _409
REMARK  161  A    between atoms: _409  and  _410
REMARK  162  A    between atoms: _413  and  _415
REMARK  163  A    between atoms: _415  and  _416
REMARK  164  A    between atoms: _415  and  _418
REMARK  165  A    between atoms: _418  and  _419
REMARK  166  A    between atoms: _419  and  _420
REMARK  167  A    between atoms: _420  and  _421
REMARK  168  A    between atoms: _430  and  _432
REMARK  169  A    between atoms: _432  and  _433
REMARK  170  A    between atoms: _432  and  _435
REMARK  171  A    between atoms: _435  and  _436
REMARK  172  A    between atoms: _441  and  _443
REMARK  173  A    between atoms: _443  and  _444
REMARK  174  A    between atoms: _443  and  _446
REMARK  175  A    between atoms: _446  and  _447
REMARK  176  A    between atoms: _447  and  _448
REMARK  177  A    between atoms: _448  and  _449
REMARK  178  A    between atoms: _458  and  _460
REMARK  179  A    between atoms: _460  and  _461
REMARK  180  A    between atoms: _464  and  _466
REMARK  181  A    between atoms: _466  and  _467
REMARK  182  A    between atoms: _469  and  _471
REMARK  183  A    between atoms: _471  and  _472
REMARK  184  A    between atoms: _471  and  _474
REMARK  185  A    between atoms: _474  and  _475
REMARK  186  A    between atoms: _485  and  _487
REMARK  187  A    between atoms: _487  and  _488
REMARK  188  A    between atoms: _487  and  _490
REMARK  189  A    between atoms: _490  and  _491
REMARK  190  A    between atoms: _492  and  _494
REMARK  191  A    between atoms: _494  and  _495
REMARK  192  A    between atoms: _498  and  _500
REMARK  193  A    between atoms: _500  and  _501
REMARK  194  A    between atoms: _500  and  _503
REMARK  195  A    between atoms: _503  and  _504
REMARK  196  A    between atoms: _507  and  _509
REMARK  197  A    between atoms: _509  and  _510
REMARK  198  A    between atoms: _509  and  _512
REMARK  199  A    between atoms: _512  and  _513
REMARK  200  A    between atoms: _518  and  _519
REMARK  201  A    between atoms: _521  and  _523
REMARK  202  A    between atoms: _523  and  _524
REMARK  203  A    between atoms: _523  and  _526
REMARK  204  A    between atoms: _526  and  _527
REMARK  205  A    between atoms: _529  and  _531
REMARK  206  A    between atoms: _531  and  _532
REMARK  207  A    between atoms: _531  and  _534
REMARK  208  A    between atoms: _534  and  _535
REMARK  209  A    between atoms: _541  and  _543
REMARK  210  A    between atoms: _543  and  _544
REMARK  211  A    between atoms: _543  and  _546
REMARK  212  A    between atoms: _546  and  _547
REMARK  213  A    between atoms: _550  and  _552
REMARK  214  A    between atoms: _552  and  _553
REMARK  215  A    between atoms: _552  and  _555
REMARK  216  A    between atoms: _555  and  _556
REMARK  217  A    between atoms: _556  and  _557
REMARK  218  A    between atoms: _559  and  _561
REMARK  219  A    between atoms: _561  and  _562
REMARK  220  A    between atoms: _561  and  _564
REMARK  221  A    between atoms: _564  and  _565
REMARK  222  A    between atoms: _567  and  _569
REMARK  223  A    between atoms: _569  and  _570
REMARK  224  A    between atoms: _569  and  _572
REMARK  225  A    between atoms: _572  and  _573
REMARK  226  A    between atoms: _575  and  _577
REMARK  227  A    between atoms: _577  and  _578
REMARK  228  A    between atoms: _577  and  _580
REMARK  229  A    between atoms: _580  and  _581
REMARK  230  A    between atoms: _586  and  _588
REMARK  231  A    between atoms: _588  and  _589
REMARK  232  A    between atoms: _588  and  _591
REMARK  233  A    between atoms: _591  and  _592
REMARK  234  A    between atoms: _597  and  _599
REMARK  235  A    between atoms: _599  and  _600
REMARK  236  A    between atoms: _599  and  _602
REMARK  237  A    between atoms: _602  and  _603
REMARK  238  A    between atoms: _606  and  _608
REMARK  239  A    between atoms: _608  and  _609
REMARK  240  A    between atoms: _612  and  _614
REMARK  241  A    between atoms: _614  and  _615
REMARK  242  A    between atoms: _614  and  _617
REMARK  243  A    between atoms: _617  and  _618
REMARK  244  A    between atoms: _623  and  _625
REMARK  245  A    between atoms: _625  and  _626
REMARK  246  A    between atoms: _625  and  _628
REMARK  247  A    between atoms: _628  and  _629
REMARK  248  A    between atoms: _632  and  _634
REMARK  249  A    between atoms: _634  and  _635
REMARK  250  A    between atoms: _634  and  _637
REMARK  251  A    between atoms: _637  and  _638
REMARK  252  A    between atoms: _643  and  _644
REMARK  253  A    between atoms: _646  and  _648
REMARK  254  A    between atoms: _648  and  _649
REMARK  255  A    between atoms: _648  and  _651
REMARK  256  A    between atoms: _651  and  _652
REMARK  257  A    between atoms: _657  and  _658
REMARK  258  A    between atoms: _660  and  _662
REMARK  259  A    between atoms: _662  and  _663
REMARK  260  A    between atoms: _662  and  _665
REMARK  261  A    between atoms: _668  and  _670
REMARK  262  A    between atoms: _670  and  _671
REMARK  263  A    between atoms: _670  and  _673
REMARK  264  A    between atoms: _673  and  _674
REMARK  265  A    between atoms: _679  and  _681
REMARK  266  A    between atoms: _681  and  _682
REMARK  267  A    between atoms: _685  and  _687
REMARK  268  A    between atoms: _687  and  _688
REMARK  269  A    between atoms: _687  and  _690
REMARK  270  A    between atoms: _690  and  _691
REMARK  271  A    between atoms: _691  and  _692
REMARK  272  A    between atoms: _692  and  _693
REMARK  273  A    between atoms: _702  and  _704
REMARK  274  A    between atoms: _704  and  _705
REMARK  275  A    between atoms: _704  and  _707
REMARK  276  A    between atoms: _707  and  _708
REMARK  277  A    between atoms: _711  and  _713
REMARK  278  A    between atoms: _713  and  _714
REMARK  279  A    between atoms: _713  and  _716
REMARK  280  A    between atoms: _716  and  _717
REMARK  281  A    between atoms: _720  and  _722
REMARK  282  A    between atoms: _722  and  _723
REMARK  283  A    between atoms: _722  and  _725
REMARK  284  A    between atoms: _725  and  _726
REMARK                            x       y       z     vdW  Elec       q    Type
REMARK                         _______ _______ _______ _____ _____    ______ ____
ROOT
ATOM      1  O   HOH     1       8.212  19.821  25.117  0.00  0.00    +0.000 OA
ENDROOT
TORSDOF 0
REMARK  Name = ../refined-set-2016/1b0h/1b0h_pocket.pdb
REMARK  284 active torsions:
REMARK  status: ('A' for Active; 'I' for Inactive)
REMARK    1  A    between atoms: _1  and  _3
REMARK    2  A    between atoms: _3  and  _4
REMARK    3  A    between atoms: _3  and  _6
REMARK    4  A    between atoms: _6  and  _7
REMARK    5  A    between atoms: _12  and  _14
REMARK    6  A    between atoms: _14  and  _15
REMARK    7  A    between atoms: _17  and  _19
REMARK    8  A    between atoms: _19  and  _20
REMARK    9  A    between atoms: _19  and  _22
REMARK   10  A    between atoms: _22  and  _23
REMARK   11  A    between atoms: _25  and  _27
REMARK   12  A    between atoms: _27  and  _28
REMARK   13  A    between atoms: _27  and  _30
REMARK   14  A    between atoms: _30  and  _31
REMARK   15  A    between atoms: _31  and  _32
REMARK   16  A    between atoms: _37  and  _39
REMARK   17  A    between atoms: _39  and  _40
REMARK   18  A    between atoms: _39  and  _42
REMARK   19  A    between atoms: _42  and  _43
REMARK   20  A    between atoms: _46  and  _48
REMARK   21  A    between atoms: _48  and  _49
REMARK   22  A    between atoms: _48  and  _51
REMARK   23  A    between atoms: _51  and  _52
REMARK   24  A    between atoms: _52  and  _53
REMARK   25  A    between atoms: _56  and  _58
REMARK   26  A    between atoms: _58  and  _59
REMARK   27  A    between atoms: _61  and  _63
REMARK   28  A    between atoms: _63  and  _64
REMARK   29  A    between atoms: _63  and  _66
REMARK   30  A    between atoms: _70  and  _71
REMARK   31  A    between atoms: _76  and  _78
REMARK   32  A    between atoms: _78  and  _79
REMARK   33  A    between atoms: _78  and  _81
REMARK   34  A    between atoms: _81  and  _82
REMARK   35  A    between atoms: _82  and  _83
REMARK   36  A    between atoms: _86  and  _88
REMARK   37  A    between atoms: _88  and  _89
REMARK   38  A    between atoms: _88  and  _91
REMARK   39  A    between atoms: _91  and  _92
REMARK   40  A    between atoms: _94  and  _96
REMARK   41  A    between atoms: _96  and  _97
REMARK   42  A    between atoms: _96  and  _99
REMARK   43  A    between atoms: _99  and  _100
REMARK   44  A    between atoms: _105  and  _107
REMARK   45  A    between atoms: _107  and  _108
REMARK   46  A    between atoms: _107  and  _110
REMARK   47  A    between atoms: _110  and  _111
REMARK   48  A    between atoms: _111  and  _112
REMARK   49  A    between atoms: _112  and  _113
REMARK   50  A    between atoms: _123  and  _124
REMARK   51  A    between atoms: _129  and  _131
REMARK   52  A    between atoms: _131  and  _132
REMARK   53  A    between atoms: _131  and  _134
REMARK   54  A    between atoms: _134  and  _135
REMARK   55  A    between atoms: _140  and  _141
REMARK   56  A    between atoms: _143  and  _145
REMARK   57  A    between atoms: _145  and  _146
REMARK   58  A    between atoms: _145  and  _148
REMARK   59  A    between atoms: _148  and  _149
REMARK   60  A    between atoms: _154  and  _155
REMARK   61  A    between atoms: _157  and  _159
REMARK   62  A    between atoms: _159  and  _160
REMARK   63  A    between atoms: _159  and  _162
REMARK   64  A    between atoms: _165  and  _167
REMARK   65  A    between atoms: _167  and  _168
REMARK   66  A    between atoms: _167  and  _170
REMARK   67  A    between atoms: _170  and  _171
REMARK   68  A    between atoms: _177  and  _178
REMARK   69  A    between atoms: _183  and  _185
REMARK   70  A    between atoms: _185  and  _186
REMARK   71  A    between atoms: _185  and  _188
REMARK   72  A    between atoms: _188  and  _189
REMARK   73  A    between atoms: _191  and  _193
REMARK   74  A    between atoms: _193  and  _194
REMARK   75  A    between atoms: _193  and  _196
REMARK   76  A    between atoms: _196  and  _197
REMARK   77  A    between atoms: _197  and  _198
REMARK   78  A    between atoms: _201  and  _203
REMARK   79  A    between atoms: _203  and  _204
REMARK   80  A    between atoms: _203  and  _206
REMARK   81  A    between atoms: _206  and  _207
REMARK   82  A    between atoms: _212  and  _213
REMARK   83  A    between atoms: _215  and  _217
REMARK   84  A    between atoms: _217  and  _218
REMARK   85  A    between atoms: _217  and  _220
REMARK   86  A    between atoms: _220  and  _221
REMARK   87  A    between atoms: _226  and  _228
REMARK   88  A    between atoms: _228  and  _229
REMARK   89  A    between atoms: _228  and  _231
REMARK   90  A    between atoms: _231  and  _232
REMARK   91  A    between atoms: _237  and  _239
REMARK   92  A    between atoms: _239  and  _240
REMARK   93  A    between atoms: _239  and  _242
REMARK   94  A    between atoms: _242  and  _243
REMARK   95  A    between atoms: _243  and  _244
REMARK   96  A    between atoms: _246  and  _248
REMARK   97  A    between atoms: _248  and  _249
REMARK   98  A    between atoms: _248  and  _251
REMARK   99  A    between atoms: _251  and  _252
REMARK  100  A    between atoms: _257  and  _258
REMARK  101  A    between atoms: _260  and  _262
REMARK  102  A    between atoms: _262  and  _263
REMARK  103  A    between atoms: _262  and  _265
REMARK  104  A    between atoms: _265  and  _266
REMARK  105  A    between atoms: _269  and  _271
REMARK  106  A    between atoms: _271  and  _272
REMARK  107  A    between atoms: _271  and  _274
REMARK  108  A    between atoms: _274  and  _275
REMARK  109  A    between atoms: _275  and  _491
REMARK  110  A    between atoms: _276  and  _278
REMARK  111  A    between atoms: _278  and  _279
REMARK  112  A    between atoms: _278  and  _281
REMARK  113  A    between atoms: _281  and  _282
REMARK  114  A    between atoms: _285  and  _287
REMARK  115  A    between atoms: _287  and  _288
REMARK  116  A    between atoms: _287  and  _290
REMARK  117  A    between atoms: _290  and  _291
REMARK  118  A    between atoms: _296  and  _297
REMARK  119  A    between atoms: _299  and  _301
REMARK  120  A    between atoms: _301  and  _302
REMARK  121  A    between atoms: _301  and  _304
REMARK  122  A    between atoms: _304  and  _305
REMARK  123  A    between atoms: _310  and  _311
REMARK  124  A    between atoms: _313  and  _315
REMARK  125  A    between atoms: _315  and  _316
REMARK  126  A    between atoms: _315  and  _318
REMARK  127  A    between atoms: _318  and  _319
REMARK  128  A    between atoms: _319  and  _320
REMARK  129  A    between atoms: _323  and  _325
REMARK  130  A    between atoms: _325  and  _326
REMARK  131  A    between atoms: _325  and  _328
REMARK  132  A    between atoms: _328  and  _329
REMARK  133  A    between atoms: _334  and  _335
REMARK  134  A    between atoms: _337  and  _339
REMARK  135  A    between atoms: _339  and  _340
REMARK  136  A    between atoms: _339  and  _342
REMARK  137  A    between atoms: _342  and  _343
REMARK  138  A    between atoms: _348  and  _350
REMARK  139  A    between atoms: _350  and  _351
REMARK  140  A    between atoms: _350  and  _353
REMARK  141  A    between atoms: _353  and  _354
REMARK  142  A    between atoms: _356  and  _358
REMARK  143  A    between atoms: _358  and  _359
REMARK  144  A    between atoms: _358  and  _361
REMARK  145  A    between atoms: _361  and  _362
REMARK  146  A    between atoms: _365  and  _367
REMARK  147  A    between atoms: _367  and  _368
REMARK  148  A    between atoms: _367  and  _370
REMARK  149  A    between atoms: _370  and  _371
REMARK  150  A    between atoms: _376  and  _378
REMARK  151  A    between atoms: _378  and  _379
REMARK  152  A    between atoms: _378  and  _381
REMARK  153  A    between atoms: _381  and  _382
REMARK  154  A    between atoms: _392  and  _394
REMARK  155  A    between atoms: _394  and  _395
REMARK  156  A    between atoms: _394  and  _397
REMARK  157  A    between atoms: _397  and  _398
REMARK  158  A    between atoms: _404  and  _406
REMARK  159  A    between atoms: _406  and  _407
REMARK  160  A    between atoms: _406  and  _409
REMARK  161  A    between atoms: _409  and  _410
REMARK  162  A    between atoms: _413  and  _415
REMARK  163  A    between atoms: _415  and  _416
REMARK  164  A    between atoms: _415  and  _418
REMARK  165  A    between atoms: _418  and  _419
REMARK  166  A    between atoms: _419  and  _420
REMARK  167  A    between atoms: _420  and  _421
REMARK  168  A    between atoms: _430  and  _432
REMARK  169  A    between atoms: _432  and  _433
REMARK  170  A    between atoms: _432  and  _435
REMARK  171  A    between atoms: _435  and  _436
REMARK  172  A    between atoms: _441  and  _443
REMARK  173  A    between atoms: _443  and  _444
REMARK  174  A    between atoms: _443  and  _446
REMARK  175  A    between atoms: _446  and  _447
REMARK  176  A    between atoms: _447  and  _448
REMARK  177  A    between atoms: _448  and  _449
REMARK  178  A    between atoms: _458  and  _460
REMARK  179  A    between atoms: _460  and  _461
REMARK  180  A    between atoms: _464  and  _466
REMARK  181  A    between atoms: _466  and  _467
REMARK  182  A    between atoms: _469  and  _471
REMARK  183  A    between atoms: _471  and  _472
REMARK  184  A    between atoms: _471  and  _474
REMARK  185  A    between atoms: _474  and  _475
REMARK  186  A    between atoms: _485  and  _487
REMARK  187  A    between atoms: _487  and  _488
REMARK  188  A    between atoms: _487  and  _490
REMARK  189  A    between atoms: _490  and  _491
REMARK  190  A    between atoms: _492  and  _494
REMARK  191  A    between atoms: _494  and  _495
REMARK  192  A    between atoms: _498  and  _500
REMARK  193  A    between atoms: _500  and  _501
REMARK  194  A    between atoms: _500  and  _503
REMARK  195  A    between atoms: _503  and  _504
REMARK  196  A    between atoms: _507  and  _509
REMARK  197  A    between atoms: _509  and  _510
REMARK  198  A    between atoms: _509  and  _512
REMARK  199  A    between atoms: _512  and  _513
REMARK  200  A    between atoms: _518  and  _519
REMARK  201  A    between atoms: _521  and  _523
REMARK  202  A    between atoms: _523  and  _524
REMARK  203  A    between atoms: _523  and  _526
REMARK  204  A    between atoms: _526  and  _527
REMARK  205  A    between atoms: _529  and  _531
REMARK  206  A    between atoms: _531  and  _532
REMARK  207  A    between atoms: _531  and  _534
REMARK  208  A    between atoms: _534  and  _535
REMARK  209  A    between atoms: _541  and  _543
REMARK  210  A    between atoms: _543  and  _544
REMARK  211  A    between atoms: _543  and  _546
REMARK  212  A    between atoms: _546  and  _547
REMARK  213  A    between atoms: _550  and  _552
REMARK  214  A    between atoms: _552  and  _553
REMARK  215  A    between atoms: _552  and  _555
REMARK  216  A    between atoms: _555  and  _556
REMARK  217  A    between atoms: _556  and  _557
REMARK  218  A    between atoms: _559  and  _561
REMARK  219  A    between atoms: _561  and  _562
REMARK  220  A    between atoms: _561  and  _564
REMARK  221  A    between atoms: _564  and  _565
REMARK  222  A    between atoms: _567  and  _569
REMARK  223  A    between atoms: _569  and  _570
REMARK  224  A    between atoms: _569  and  _572
REMARK  225  A    between atoms: _572  and  _573
REMARK  226  A    between atoms: _575  and  _577
REMARK  227  A    between atoms: _577  and  _578
REMARK  228  A    between atoms: _577  and  _580
REMARK  229  A    between atoms: _580  and  _581
REMARK  230  A    between atoms: _586  and  _588
REMARK  231  A    between atoms: _588  and  _589
REMARK  232  A    between atoms: _588  and  _591
REMARK  233  A    between atoms: _591  and  _592
REMARK  234  A    between atoms: _597  and  _599
REMARK  235  A    between atoms: _599  and  _600
REMARK  236  A    between atoms: _599  and  _602
REMARK  237  A    between atoms: _602  and  _603
REMARK  238  A    between atoms: _606  and  _608
REMARK  239  A    between atoms: _608  and  _609
REMARK  240  A    between atoms: _612  and  _614
REMARK  241  A    between atoms: _614  and  _615
REMARK  242  A    between atoms: _614  and  _617
REMARK  243  A    between atoms: _617  and  _618
REMARK  244  A    between atoms: _623  and  _625
REMARK  245  A    between atoms: _625  and  _626
REMARK  246  A    between atoms: _625  and  _628
REMARK  247  A    between atoms: _628  and  _629
REMARK  248  A    between atoms: _632  and  _634
REMARK  249  A    between atoms: _634  and  _635
REMARK  250  A    between atoms: _634  and  _637
REMARK  251  A    between atoms: _637  and  _638
REMARK  252  A    between atoms: _643  and  _644
REMARK  253  A    between atoms: _646  and  _648
REMARK  254  A    between atoms: _648  and  _649
REMARK  255  A    between atoms: _648  and  _651
REMARK  256  A    between atoms: _651  and  _652
REMARK  257  A    between atoms: _657  and  _658
REMARK  258  A    between atoms: _660  and  _662
REMARK  259  A    between atoms: _662  and  _663
REMARK  260  A    between atoms: _662  and  _665
REMARK  261  A    between atoms: _668  and  _670
REMARK  262  A    between atoms: _670  and  _671
REMARK  263  A    between atoms: _670  and  _673
REMARK  264  A    between atoms: _673  and  _674
REMARK  265  A    between atoms: _679  and  _681
REMARK  266  A    between atoms: _681  and  _682
REMARK  267  A    between atoms: _685  and  _687
REMARK  268  A    between atoms: _687  and  _688
REMARK  269  A    between atoms: _687  and  _690
REMARK  270  A    between atoms: _690  and  _691
REMARK  271  A    between atoms: _691  and  _692
REMARK  272  A    between atoms: _692  and  _693
REMARK  273  A    between atoms: _702  and  _704
REMARK  274  A    between atoms: _704  and  _705
REMARK  275  A    between atoms: _704  and  _707
REMARK  276  A    between atoms: _707  and  _708
REMARK  277  A    between atoms: _711  and  _713
REMARK  278  A    between atoms: _713  and  _714
REMARK  279  A    between atoms: _713  and  _716
REMARK  280  A    between atoms: _716  and  _717
REMARK  281  A    between atoms: _720  and  _722
REMARK  282  A    between atoms: _722  and  _723
REMARK  283  A    between atoms: _722  and  _725
REMARK  284  A    between atoms: _725  and  _726
REMARK                            x       y       z     vdW  Elec       q    Type
REMARK                         _______ _______ _______ _____ _____    ______ ____
ROOT
ATOM      1  O   HOH     1       7.872  15.534   6.658  0.00  0.00    +0.000 OA
ENDROOT
TORSDOF 0
REMARK  Name = ../refined-set-2016/1b0h/1b0h_pocket.pdb
REMARK  284 active torsions:
REMARK  status: ('A' for Active; 'I' for Inactive)
REMARK    1  A    between atoms: _1  and  _3
REMARK    2  A    between atoms: _3  and  _4
REMARK    3  A    between atoms: _3  and  _6
REMARK    4  A    between atoms: _6  and  _7
REMARK    5  A    between atoms: _12  and  _14
REMARK    6  A    between atoms: _14  and  _15
REMARK    7  A    between atoms: _17  and  _19
REMARK    8  A    between atoms: _19  and  _20
REMARK    9  A    between atoms: _19  and  _22
REMARK   10  A    between atoms: _22  and  _23
REMARK   11  A    between atoms: _25  and  _27
REMARK   12  A    between atoms: _27  and  _28
REMARK   13  A    between atoms: _27  and  _30
REMARK   14  A    between atoms: _30  and  _31
REMARK   15  A    between atoms: _31  and  _32
REMARK   16  A    between atoms: _37  and  _39
REMARK   17  A    between atoms: _39  and  _40
REMARK   18  A    between atoms: _39  and  _42
REMARK   19  A    between atoms: _42  and  _43
REMARK   20  A    between atoms: _46  and  _48
REMARK   21  A    between atoms: _48  and  _49
REMARK   22  A    between atoms: _48  and  _51
REMARK   23  A    between atoms: _51  and  _52
REMARK   24  A    between atoms: _52  and  _53
REMARK   25  A    between atoms: _56  and  _58
REMARK   26  A    between atoms: _58  and  _59
REMARK   27  A    between atoms: _61  and  _63
REMARK   28  A    between atoms: _63  and  _64
REMARK   29  A    between atoms: _63  and  _66
REMARK   30  A    between atoms: _70  and  _71
REMARK   31  A    between atoms: _76  and  _78
REMARK   32  A    between atoms: _78  and  _79
REMARK   33  A    between atoms: _78  and  _81
REMARK   34  A    between atoms: _81  and  _82
REMARK   35  A    between atoms: _82  and  _83
REMARK   36  A    between atoms: _86  and  _88
REMARK   37  A    between atoms: _88  and  _89
REMARK   38  A    between atoms: _88  and  _91
REMARK   39  A    between atoms: _91  and  _92
REMARK   40  A    between atoms: _94  and  _96
REMARK   41  A    between atoms: _96  and  _97
REMARK   42  A    between atoms: _96  and  _99
REMARK   43  A    between atoms: _99  and  _100
REMARK   44  A    between atoms: _105  and  _107
REMARK   45  A    between atoms: _107  and  _108
REMARK   46  A    between atoms: _107  and  _110
REMARK   47  A    between atoms: _110  and  _111
REMARK   48  A    between atoms: _111  and  _112
REMARK   49  A    between atoms: _112  and  _113
REMARK   50  A    between atoms: _123  and  _124
REMARK   51  A    between atoms: _129  and  _131
REMARK   52  A    between atoms: _131  and  _132
REMARK   53  A    between atoms: _131  and  _134
REMARK   54  A    between atoms: _134  and  _135
REMARK   55  A    between atoms: _140  and  _141
REMARK   56  A    between atoms: _143  and  _145
REMARK   57  A    between atoms: _145  and  _146
REMARK   58  A    between atoms: _145  and  _148
REMARK   59  A    between atoms: _148  and  _149
REMARK   60  A    between atoms: _154  and  _155
REMARK   61  A    between atoms: _157  and  _159
REMARK   62  A    between atoms: _159  and  _160
REMARK   63  A    between atoms: _159  and  _162
REMARK   64  A    between atoms: _165  and  _167
REMARK   65  A    between atoms: _167  and  _168
REMARK   66  A    between atoms: _167  and  _170
REMARK   67  A    between atoms: _170  and  _171
REMARK   68  A    between atoms: _177  and  _178
REMARK   69  A    between atoms: _183  and  _185
REMARK   70  A    between atoms: _185  and  _186
REMARK   71  A    between atoms: _185  and  _188
REMARK   72  A    between atoms: _188  and  _189
REMARK   73  A    between atoms: _191  and  _193
REMARK   74  A    between atoms: _193  and  _194
REMARK   75  A    between atoms: _193  and  _196
REMARK   76  A    between atoms: _196  and  _197
REMARK   77  A    between atoms: _197  and  _198
REMARK   78  A    between atoms: _201  and  _203
REMARK   79  A    between atoms: _203  and  _204
REMARK   80  A    between atoms: _203  and  _206
REMARK   81  A    between atoms: _206  and  _207
REMARK   82  A    between atoms: _212  and  _213
REMARK   83  A    between atoms: _215  and  _217
REMARK   84  A    between atoms: _217  and  _218
REMARK   85  A    between atoms: _217  and  _220
REMARK   86  A    between atoms: _220  and  _221
REMARK   87  A    between atoms: _226  and  _228
REMARK   88  A    between atoms: _228  and  _229
REMARK   89  A    between atoms: _228  and  _231
REMARK   90  A    between atoms: _231  and  _232
REMARK   91  A    between atoms: _237  and  _239
REMARK   92  A    between atoms: _239  and  _240
REMARK   93  A    between atoms: _239  and  _242
REMARK   94  A    between atoms: _242  and  _243
REMARK   95  A    between atoms: _243  and  _244
REMARK   96  A    between atoms: _246  and  _248
REMARK   97  A    between atoms: _248  and  _249
REMARK   98  A    between atoms: _248  and  _251
REMARK   99  A    between atoms: _251  and  _252
REMARK  100  A    between atoms: _257  and  _258
REMARK  101  A    between atoms: _260  and  _262
REMARK  102  A    between atoms: _262  and  _263
REMARK  103  A    between atoms: _262  and  _265
REMARK  104  A    between atoms: _265  and  _266
REMARK  105  A    between atoms: _269  and  _271
REMARK  106  A    between atoms: _271  and  _272
REMARK  107  A    between atoms: _271  and  _274
REMARK  108  A    between atoms: _274  and  _275
REMARK  109  A    between atoms: _275  and  _491
REMARK  110  A    between atoms: _276  and  _278
REMARK  111  A    between atoms: _278  and  _279
REMARK  112  A    between atoms: _278  and  _281
REMARK  113  A    between atoms: _281  and  _282
REMARK  114  A    between atoms: _285  and  _287
REMARK  115  A    between atoms: _287  and  _288
REMARK  116  A    between atoms: _287  and  _290
REMARK  117  A    between atoms: _290  and  _291
REMARK  118  A    between atoms: _296  and  _297
REMARK  119  A    between atoms: _299  and  _301
REMARK  120  A    between atoms: _301  and  _302
REMARK  121  A    between atoms: _301  and  _304
REMARK  122  A    between atoms: _304  and  _305
REMARK  123  A    between atoms: _310  and  _311
REMARK  124  A    between atoms: _313  and  _315
REMARK  125  A    between atoms: _315  and  _316
REMARK  126  A    between atoms: _315  and  _318
REMARK  127  A    between atoms: _318  and  _319
REMARK  128  A    between atoms: _319  and  _320
REMARK  129  A    between atoms: _323  and  _325
REMARK  130  A    between atoms: _325  and  _326
REMARK  131  A    between atoms: _325  and  _328
REMARK  132  A    between atoms: _328  and  _329
REMARK  133  A    between atoms: _334  and  _335
REMARK  134  A    between atoms: _337  and  _339
REMARK  135  A    between atoms: _339  and  _340
REMARK  136  A    between atoms: _339  and  _342
REMARK  137  A    between atoms: _342  and  _343
REMARK  138  A    between atoms: _348  and  _350
REMARK  139  A    between atoms: _350  and  _351
REMARK  140  A    between atoms: _350  and  _353
REMARK  141  A    between atoms: _353  and  _354
REMARK  142  A    between atoms: _356  and  _358
REMARK  143  A    between atoms: _358  and  _359
REMARK  144  A    between atoms: _358  and  _361
REMARK  145  A    between atoms: _361  and  _362
REMARK  146  A    between atoms: _365  and  _367
REMARK  147  A    between atoms: _367  and  _368
REMARK  148  A    between atoms: _367  and  _370
REMARK  149  A    between atoms: _370  and  _371
REMARK  150  A    between atoms: _376  and  _378
REMARK  151  A    between atoms: _378  and  _379
REMARK  152  A    between atoms: _378  and  _381
REMARK  153  A    between atoms: _381  and  _382
REMARK  154  A    between atoms: _392  and  _394
REMARK  155  A    between atoms: _394  and  _395
REMARK  156  A    between atoms: _394  and  _397
REMARK  157  A    between atoms: _397  and  _398
REMARK  158  A    between atoms: _404  and  _406
REMARK  159  A    between atoms: _406  and  _407
REMARK  160  A    between atoms: _406  and  _409
REMARK  161  A    between atoms: _409  and  _410
REMARK  162  A    between atoms: _413  and  _415
REMARK  163  A    between atoms: _415  and  _416
REMARK  164  A    between atoms: _415  and  _418
REMARK  165  A    between atoms: _418  and  _419
REMARK  166  A    between atoms: _419  and  _420
REMARK  167  A    between atoms: _420  and  _421
REMARK  168  A    between atoms: _430  and  _432
REMARK  169  A    between atoms: _432  and  _433
REMARK  170  A    between atoms: _432  and  _435
REMARK  171  A    between atoms: _435  and  _436
REMARK  172  A    between atoms: _441  and  _443
REMARK  173  A    between atoms: _443  and  _444
REMARK  174  A    between atoms: _443  and  _446
REMARK  175  A    between atoms: _446  and  _447
REMARK  176  A    between atoms: _447  and  _448
REMARK  177  A    between atoms: _448  and  _449
REMARK  178  A    between atoms: _458  and  _460
REMARK  179  A    between atoms: _460  and  _461
REMARK  180  A    between atoms: _464  and  _466
REMARK  181  A    between atoms: _466  and  _467
REMARK  182  A    between atoms: _469  and  _471
REMARK  183  A    between atoms: _471  and  _472
REMARK  184  A    between atoms: _471  and  _474
REMARK  185  A    between atoms: _474  and  _475
REMARK  186  A    between atoms: _485  and  _487
REMARK  187  A    between atoms: _487  and  _488
REMARK  188  A    between atoms: _487  and  _490
REMARK  189  A    between atoms: _490  and  _491
REMARK  190  A    between atoms: _492  and  _494
REMARK  191  A    between atoms: _494  and  _495
REMARK  192  A    between atoms: _498  and  _500
REMARK  193  A    between atoms: _500  and  _501
REMARK  194  A    between atoms: _500  and  _503
REMARK  195  A    between atoms: _503  and  _504
REMARK  196  A    between atoms: _507  and  _509
REMARK  197  A    between atoms: _509  and  _510
REMARK  198  A    between atoms: _509  and  _512
REMARK  199  A    between atoms: _512  and  _513
REMARK  200  A    between atoms: _518  and  _519
REMARK  201  A    between atoms: _521  and  _523
REMARK  202  A    between atoms: _523  and  _524
REMARK  203  A    between atoms: _523  and  _526
REMARK  204  A    between atoms: _526  and  _527
REMARK  205  A    between atoms: _529  and  _531
REMARK  206  A    between atoms: _531  and  _532
REMARK  207  A    between atoms: _531  and  _534
REMARK  208  A    between atoms: _534  and  _535
REMARK  209  A    between atoms: _541  and  _543
REMARK  210  A    between atoms: _543  and  _544
REMARK  211  A    between atoms: _543  and  _546
REMARK  212  A    between atoms: _546  and  _547
REMARK  213  A    between atoms: _550  and  _552
REMARK  214  A    between atoms: _552  and  _553
REMARK  215  A    between atoms: _552  and  _555
REMARK  216  A    between atoms: _555  and  _556
REMARK  217  A    between atoms: _556  and  _557
REMARK  218  A    between atoms: _559  and  _561
REMARK  219  A    between atoms: _561  and  _562
REMARK  220  A    between atoms: _561  and  _564
REMARK  221  A    between atoms: _564  and  _565
REMARK  222  A    between atoms: _567  and  _569
REMARK  223  A    between atoms: _569  and  _570
REMARK  224  A    between atoms: _569  and  _572
REMARK  225  A    between atoms: _572  and  _573
REMARK  226  A    between atoms: _575  and  _577
REMARK  227  A    between atoms: _577  and  _578
REMARK  228  A    between atoms: _577  and  _580
REMARK  229  A    between atoms: _580  and  _581
REMARK  230  A    between atoms: _586  and  _588
REMARK  231  A    between atoms: _588  and  _589
REMARK  232  A    between atoms: _588  and  _591
REMARK  233  A    between atoms: _591  and  _592
REMARK  234  A    between atoms: _597  and  _599
REMARK  235  A    between atoms: _599  and  _600
REMARK  236  A    between atoms: _599  and  _602
REMARK  237  A    between atoms: _602  and  _603
REMARK  238  A    between atoms: _606  and  _608
REMARK  239  A    between atoms: _608  and  _609
REMARK  240  A    between atoms: _612  and  _614
REMARK  241  A    between atoms: _614  and  _615
REMARK  242  A    between atoms: _614  and  _617
REMARK  243  A    between atoms: _617  and  _618
REMARK  244  A    between atoms: _623  and  _625
REMARK  245  A    between atoms: _625  and  _626
REMARK  246  A    between atoms: _625  and  _628
REMARK  247  A    between atoms: _628  and  _629
REMARK  248  A    between atoms: _632  and  _634
REMARK  249  A    between atoms: _634  and  _635
REMARK  250  A    between atoms: _634  and  _637
REMARK  251  A    between atoms: _637  and  _638
REMARK  252  A    between atoms: _643  and  _644
REMARK  253  A    between atoms: _646  and  _648
REMARK  254  A    between atoms: _648  and  _649
REMARK  255  A    between atoms: _648  and  _651
REMARK  256  A    between atoms: _651  and  _652
REMARK  257  A    between atoms: _657  and  _658
REMARK  258  A    between atoms: _660  and  _662
REMARK  259  A    between atoms: _662  and  _663
REMARK  260  A    between atoms: _662  and  _665
REMARK  261  A    between atoms: _668  and  _670
REMARK  262  A    between atoms: _670  and  _671
REMARK  263  A    between atoms: _670  and  _673
REMARK  264  A    between atoms: _673  and  _674
REMARK  265  A    between atoms: _679  and  _681
REMARK  266  A    between atoms: _681  and  _682
REMARK  267  A    between atoms: _685  and  _687
REMARK  268  A    between atoms: _687  and  _688
REMARK  269  A    between atoms: _687  and  _690
REMARK  270  A    between atoms: _690  and  _691
REMARK  271  A    between atoms: _691  and  _692
REMARK  272  A    between atoms: _692  and  _693
REMARK  273  A    between atoms: _702  and  _704
REMARK  274  A    between atoms: _704  and  _705
REMARK  275  A    between atoms: _704  and  _707
REMARK  276  A    between atoms: _707  and  _708
REMARK  277  A    between atoms: _711  and  _713
REMARK  278  A    between atoms: _713  and  _714
REMARK  279  A    between atoms: _713  and  _716
REMARK  280  A    between atoms: _716  and  _717
REMARK  281  A    between atoms: _720  and  _722
REMARK  282  A    between atoms: _722  and  _723
REMARK  283  A    between atoms: _722  and  _725
REMARK  284  A    between atoms: _725  and  _726
REMARK                            x       y       z     vdW  Elec       q    Type
REMARK                         _______ _______ _______ _____ _____    ______ ____
ROOT
ATOM      1  O   HOH     1      10.284  15.873   4.857  0.00  0.00    +0.000 OA
ENDROOT
TORSDOF 0
REMARK  Name = ../refined-set-2016/1b0h/1b0h_pocket.pdb
REMARK  284 active torsions:
REMARK  status: ('A' for Active; 'I' for Inactive)
REMARK    1  A    between atoms: _1  and  _3
REMARK    2  A    between atoms: _3  and  _4
REMARK    3  A    between atoms: _3  and  _6
REMARK    4  A    between atoms: _6  and  _7
REMARK    5  A    between atoms: _12  and  _14
REMARK    6  A    between atoms: _14  and  _15
REMARK    7  A    between atoms: _17  and  _19
REMARK    8  A    between atoms: _19  and  _20
REMARK    9  A    between atoms: _19  and  _22
REMARK   10  A    between atoms: _22  and  _23
REMARK   11  A    between atoms: _25  and  _27
REMARK   12  A    between atoms: _27  and  _28
REMARK   13  A    between atoms: _27  and  _30
REMARK   14  A    between atoms: _30  and  _31
REMARK   15  A    between atoms: _31  and  _32
REMARK   16  A    between atoms: _37  and  _39
REMARK   17  A    between atoms: _39  and  _40
REMARK   18  A    between atoms: _39  and  _42
REMARK   19  A    between atoms: _42  and  _43
REMARK   20  A    between atoms: _46  and  _48
REMARK   21  A    between atoms: _48  and  _49
REMARK   22  A    between atoms: _48  and  _51
REMARK   23  A    between atoms: _51  and  _52
REMARK   24  A    between atoms: _52  and  _53
REMARK   25  A    between atoms: _56  and  _58
REMARK   26  A    between atoms: _58  and  _59
REMARK   27  A    between atoms: _61  and  _63
REMARK   28  A    between atoms: _63  and  _64
REMARK   29  A    between atoms: _63  and  _66
REMARK   30  A    between atoms: _70  and  _71
REMARK   31  A    between atoms: _76  and  _78
REMARK   32  A    between atoms: _78  and  _79
REMARK   33  A    between atoms: _78  and  _81
REMARK   34  A    between atoms: _81  and  _82
REMARK   35  A    between atoms: _82  and  _83
REMARK   36  A    between atoms: _86  and  _88
REMARK   37  A    between atoms: _88  and  _89
REMARK   38  A    between atoms: _88  and  _91
REMARK   39  A    between atoms: _91  and  _92
REMARK   40  A    between atoms: _94  and  _96
REMARK   41  A    between atoms: _96  and  _97
REMARK   42  A    between atoms: _96  and  _99
REMARK   43  A    between atoms: _99  and  _100
REMARK   44  A    between atoms: _105  and  _107
REMARK   45  A    between atoms: _107  and  _108
REMARK   46  A    between atoms: _107  and  _110
REMARK   47  A    between atoms: _110  and  _111
REMARK   48  A    between atoms: _111  and  _112
REMARK   49  A    between atoms: _112  and  _113
REMARK   50  A    between atoms: _123  and  _124
REMARK   51  A    between atoms: _129  and  _131
REMARK   52  A    between atoms: _131  and  _132
REMARK   53  A    between atoms: _131  and  _134
REMARK   54  A    between atoms: _134  and  _135
REMARK   55  A    between atoms: _140  and  _141
REMARK   56  A    between atoms: _143  and  _145
REMARK   57  A    between atoms: _145  and  _146
REMARK   58  A    between atoms: _145  and  _148
REMARK   59  A    between atoms: _148  and  _149
REMARK   60  A    between atoms: _154  and  _155
REMARK   61  A    between atoms: _157  and  _159
REMARK   62  A    between atoms: _159  and  _160
REMARK   63  A    between atoms: _159  and  _162
REMARK   64  A    between atoms: _165  and  _167
REMARK   65  A    between atoms: _167  and  _168
REMARK   66  A    between atoms: _167  and  _170
REMARK   67  A    between atoms: _170  and  _171
REMARK   68  A    between atoms: _177  and  _178
REMARK   69  A    between atoms: _183  and  _185
REMARK   70  A    between atoms: _185  and  _186
REMARK   71  A    between atoms: _185  and  _188
REMARK   72  A    between atoms: _188  and  _189
REMARK   73  A    between atoms: _191  and  _193
REMARK   74  A    between atoms: _193  and  _194
REMARK   75  A    between atoms: _193  and  _196
REMARK   76  A    between atoms: _196  and  _197
REMARK   77  A    between atoms: _197  and  _198
REMARK   78  A    between atoms: _201  and  _203
REMARK   79  A    between atoms: _203  and  _204
REMARK   80  A    between atoms: _203  and  _206
REMARK   81  A    between atoms: _206  and  _207
REMARK   82  A    between atoms: _212  and  _213
REMARK   83  A    between atoms: _215  and  _217
REMARK   84  A    between atoms: _217  and  _218
REMARK   85  A    between atoms: _217  and  _220
REMARK   86  A    between atoms: _220  and  _221
REMARK   87  A    between atoms: _226  and  _228
REMARK   88  A    between atoms: _228  and  _229
REMARK   89  A    between atoms: _228  and  _231
REMARK   90  A    between atoms: _231  and  _232
REMARK   91  A    between atoms: _237  and  _239
REMARK   92  A    between atoms: _239  and  _240
REMARK   93  A    between atoms: _239  and  _242
REMARK   94  A    between atoms: _242  and  _243
REMARK   95  A    between atoms: _243  and  _244
REMARK   96  A    between atoms: _246  and  _248
REMARK   97  A    between atoms: _248  and  _249
REMARK   98  A    between atoms: _248  and  _251
REMARK   99  A    between atoms: _251  and  _252
REMARK  100  A    between atoms: _257  and  _258
REMARK  101  A    between atoms: _260  and  _262
REMARK  102  A    between atoms: _262  and  _263
REMARK  103  A    between atoms: _262  and  _265
REMARK  104  A    between atoms: _265  and  _266
REMARK  105  A    between atoms: _269  and  _271
REMARK  106  A    between atoms: _271  and  _272
REMARK  107  A    between atoms: _271  and  _274
REMARK  108  A    between atoms: _274  and  _275
REMARK  109  A    between atoms: _275  and  _491
REMARK  110  A    between atoms: _276  and  _278
REMARK  111  A    between atoms: _278  and  _279
REMARK  112  A    between atoms: _278  and  _281
REMARK  113  A    between atoms: _281  and  _282
REMARK  114  A    between atoms: _285  and  _287
REMARK  115  A    between atoms: _287  and  _288
REMARK  116  A    between atoms: _287  and  _290
REMARK  117  A    between atoms: _290  and  _291
REMARK  118  A    between atoms: _296  and  _297
REMARK  119  A    between atoms: _299  and  _301
REMARK  120  A    between atoms: _301  and  _302
REMARK  121  A    between atoms: _301  and  _304
REMARK  122  A    between atoms: _304  and  _305
REMARK  123  A    between atoms: _310  and  _311
REMARK  124  A    between atoms: _313  and  _315
REMARK  125  A    between atoms: _315  and  _316
REMARK  126  A    between atoms: _315  and  _318
REMARK  127  A    between atoms: _318  and  _319
REMARK  128  A    between atoms: _319  and  _320
REMARK  129  A    between atoms: _323  and  _325
REMARK  130  A    between atoms: _325  and  _326
REMARK  131  A    between atoms: _325  and  _328
REMARK  132  A    between atoms: _328  and  _329
REMARK  133  A    between atoms: _334  and  _335
REMARK  134  A    between atoms: _337  and  _339
REMARK  135  A    between atoms: _339  and  _340
REMARK  136  A    between atoms: _339  and  _342
REMARK  137  A    between atoms: _342  and  _343
REMARK  138  A    between atoms: _348  and  _350
REMARK  139  A    between atoms: _350  and  _351
REMARK  140  A    between atoms: _350  and  _353
REMARK  141  A    between atoms: _353  and  _354
REMARK  142  A    between atoms: _356  and  _358
REMARK  143  A    between atoms: _358  and  _359
REMARK  144  A    between atoms: _358  and  _361
REMARK  145  A    between atoms: _361  and  _362
REMARK  146  A    between atoms: _365  and  _367
REMARK  147  A    between atoms: _367  and  _368
REMARK  148  A    between atoms: _367  and  _370
REMARK  149  A    between atoms: _370  and  _371
REMARK  150  A    between atoms: _376  and  _378
REMARK  151  A    between atoms: _378  and  _379
REMARK  152  A    between atoms: _378  and  _381
REMARK  153  A    between atoms: _381  and  _382
REMARK  154  A    between atoms: _392  and  _394
REMARK  155  A    between atoms: _394  and  _395
REMARK  156  A    between atoms: _394  and  _397
REMARK  157  A    between atoms: _397  and  _398
REMARK  158  A    between atoms: _404  and  _406
REMARK  159  A    between atoms: _406  and  _407
REMARK  160  A    between atoms: _406  and  _409
REMARK  161  A    between atoms: _409  and  _410
REMARK  162  A    between atoms: _413  and  _415
REMARK  163  A    between atoms: _415  and  _416
REMARK  164  A    between atoms: _415  and  _418
REMARK  165  A    between atoms: _418  and  _419
REMARK  166  A    between atoms: _419  and  _420
REMARK  167  A    between atoms: _420  and  _421
REMARK  168  A    between atoms: _430  and  _432
REMARK  169  A    between atoms: _432  and  _433
REMARK  170  A    between atoms: _432  and  _435
REMARK  171  A    between atoms: _435  and  _436
REMARK  172  A    between atoms: _441  and  _443
REMARK  173  A    between atoms: _443  and  _444
REMARK  174  A    between atoms: _443  and  _446
REMARK  175  A    between atoms: _446  and  _447
REMARK  176  A    between atoms: _447  and  _448
REMARK  177  A    between atoms: _448  and  _449
REMARK  178  A    between atoms: _458  and  _460
REMARK  179  A    between atoms: _460  and  _461
REMARK  180  A    between atoms: _464  and  _466
REMARK  181  A    between atoms: _466  and  _467
REMARK  182  A    between atoms: _469  and  _471
REMARK  183  A    between atoms: _471  and  _472
REMARK  184  A    between atoms: _471  and  _474
REMARK  185  A    between atoms: _474  and  _475
REMARK  186  A    between atoms: _485  and  _487
REMARK  187  A    between atoms: _487  and  _488
REMARK  188  A    between atoms: _487  and  _490
REMARK  189  A    between atoms: _490  and  _491
REMARK  190  A    between atoms: _492  and  _494
REMARK  191  A    between atoms: _494  and  _495
REMARK  192  A    between atoms: _498  and  _500
REMARK  193  A    between atoms: _500  and  _501
REMARK  194  A    between atoms: _500  and  _503
REMARK  195  A    between atoms: _503  and  _504
REMARK  196  A    between atoms: _507  and  _509
REMARK  197  A    between atoms: _509  and  _510
REMARK  198  A    between atoms: _509  and  _512
REMARK  199  A    between atoms: _512  and  _513
REMARK  200  A    between atoms: _518  and  _519
REMARK  201  A    between atoms: _521  and  _523
REMARK  202  A    between atoms: _523  and  _524
REMARK  203  A    between atoms: _523  and  _526
REMARK  204  A    between atoms: _526  and  _527
REMARK  205  A    between atoms: _529  and  _531
REMARK  206  A    between atoms: _531  and  _532
REMARK  207  A    between atoms: _531  and  _534
REMARK  208  A    between atoms: _534  and  _535
REMARK  209  A    between atoms: _541  and  _543
REMARK  210  A    between atoms: _543  and  _544
REMARK  211  A    between atoms: _543  and  _546
REMARK  212  A    between atoms: _546  and  _547
REMARK  213  A    between atoms: _550  and  _552
REMARK  214  A    between atoms: _552  and  _553
REMARK  215  A    between atoms: _552  and  _555
REMARK  216  A    between atoms: _555  and  _556
REMARK  217  A    between atoms: _556  and  _557
REMARK  218  A    between atoms: _559  and  _561
REMARK  219  A    between atoms: _561  and  _562
REMARK  220  A    between atoms: _561  and  _564
REMARK  221  A    between atoms: _564  and  _565
REMARK  222  A    between atoms: _567  and  _569
REMARK  223  A    between atoms: _569  and  _570
REMARK  224  A    between atoms: _569  and  _572
REMARK  225  A    between atoms: _572  and  _573
REMARK  226  A    between atoms: _575  and  _577
REMARK  227  A    between atoms: _577  and  _578
REMARK  228  A    between atoms: _577  and  _580
REMARK  229  A    between atoms: _580  and  _581
REMARK  230  A    between atoms: _586  and  _588
REMARK  231  A    between atoms: _588  and  _589
REMARK  232  A    between atoms: _588  and  _591
REMARK  233  A    between atoms: _591  and  _592
REMARK  234  A    between atoms: _597  and  _599
REMARK  235  A    between atoms: _599  and  _600
REMARK  236  A    between atoms: _599  and  _602
REMARK  237  A    between atoms: _602  and  _603
REMARK  238  A    between atoms: _606  and  _608
REMARK  239  A    between atoms: _608  and  _609
REMARK  240  A    between atoms: _612  and  _614
REMARK  241  A    between atoms: _614  and  _615
REMARK  242  A    between atoms: _614  and  _617
REMARK  243  A    between atoms: _617  and  _618
REMARK  244  A    between atoms: _623  and  _625
REMARK  245  A    between atoms: _625  and  _626
REMARK  246  A    between atoms: _625  and  _628
REMARK  247  A    between atoms: _628  and  _629
REMARK  248  A    between atoms: _632  and  _634
REMARK  249  A    between atoms: _634  and  _635
REMARK  250  A    between atoms: _634  and  _637
REMARK  251  A    between atoms: _637  and  _638
REMARK  252  A    between atoms: _643  and  _644
REMARK  253  A    between atoms: _646  and  _648
REMARK  254  A    between atoms: _648  and  _649
REMARK  255  A    between atoms: _648  and  _651
REMARK  256  A    between atoms: _651  and  _652
REMARK  257  A    between atoms: _657  and  _658
REMARK  258  A    between atoms: _660  and  _662
REMARK  259  A    between atoms: _662  and  _663
REMARK  260  A    between atoms: _662  and  _665
REMARK  261  A    between atoms: _668  and  _670
REMARK  262  A    between atoms: _670  and  _671
REMARK  263  A    between atoms: _670  and  _673
REMARK  264  A    between atoms: _673  and  _674
REMARK  265  A    between atoms: _679  and  _681
REMARK  266  A    between atoms: _681  and  _682
REMARK  267  A    between atoms: _685  and  _687
REMARK  268  A    between atoms: _687  and  _688
REMARK  269  A    between atoms: _687  and  _690
REMARK  270  A    between atoms: _690  and  _691
REMARK  271  A    between atoms: _691  and  _692
REMARK  272  A    between atoms: _692  and  _693
REMARK  273  A    between atoms: _702  and  _704
REMARK  274  A    between atoms: _704  and  _705
REMARK  275  A    between atoms: _704  and  _707
REMARK  276  A    between atoms: _707  and  _708
REMARK  277  A    between atoms: _711  and  _713
REMARK  278  A    between atoms: _713  and  _714
REMARK  279  A    between atoms: _713  and  _716
REMARK  280  A    between atoms: _716  and  _717
REMARK  281  A    between atoms: _720  and  _722
REMARK  282  A    between atoms: _722  and  _723
REMARK  283  A    between atoms: _722  and  _725
REMARK  284  A    between atoms: _725  and  _726
REMARK                            x       y       z     vdW  Elec       q    Type
REMARK                         _______ _______ _______ _____ _____    ______ ____
ROOT
ATOM      1  O   HOH     1      -1.668  21.645  12.651  0.00  0.00    +0.000 OA
ENDROOT
TORSDOF 0
REMARK  Name = ../refined-set-2016/1b0h/1b0h_pocket.pdb
REMARK  284 active torsions:
REMARK  status: ('A' for Active; 'I' for Inactive)
REMARK    1  A    between atoms: _1  and  _3
REMARK    2  A    between atoms: _3  and  _4
REMARK    3  A    between atoms: _3  and  _6
REMARK    4  A    between atoms: _6  and  _7
REMARK    5  A    between atoms: _12  and  _14
REMARK    6  A    between atoms: _14  and  _15
REMARK    7  A    between atoms: _17  and  _19
REMARK    8  A    between atoms: _19  and  _20
REMARK    9  A    between atoms: _19  and  _22
REMARK   10  A    between atoms: _22  and  _23
REMARK   11  A    between atoms: _25  and  _27
REMARK   12  A    between atoms: _27  and  _28
REMARK   13  A    between atoms: _27  and  _30
REMARK   14  A    between atoms: _30  and  _31
REMARK   15  A    between atoms: _31  and  _32
REMARK   16  A    between atoms: _37  and  _39
REMARK   17  A    between atoms: _39  and  _40
REMARK   18  A    between atoms: _39  and  _42
REMARK   19  A    between atoms: _42  and  _43
REMARK   20  A    between atoms: _46  and  _48
REMARK   21  A    between atoms: _48  and  _49
REMARK   22  A    between atoms: _48  and  _51
REMARK   23  A    between atoms: _51  and  _52
REMARK   24  A    between atoms: _52  and  _53
REMARK   25  A    between atoms: _56  and  _58
REMARK   26  A    between atoms: _58  and  _59
REMARK   27  A    between atoms: _61  and  _63
REMARK   28  A    between atoms: _63  and  _64
REMARK   29  A    between atoms: _63  and  _66
REMARK   30  A    between atoms: _70  and  _71
REMARK   31  A    between atoms: _76  and  _78
REMARK   32  A    between atoms: _78  and  _79
REMARK   33  A    between atoms: _78  and  _81
REMARK   34  A    between atoms: _81  and  _82
REMARK   35  A    between atoms: _82  and  _83
REMARK   36  A    between atoms: _86  and  _88
REMARK   37  A    between atoms: _88  and  _89
REMARK   38  A    between atoms: _88  and  _91
REMARK   39  A    between atoms: _91  and  _92
REMARK   40  A    between atoms: _94  and  _96
REMARK   41  A    between atoms: _96  and  _97
REMARK   42  A    between atoms: _96  and  _99
REMARK   43  A    between atoms: _99  and  _100
REMARK   44  A    between atoms: _105  and  _107
REMARK   45  A    between atoms: _107  and  _108
REMARK   46  A    between atoms: _107  and  _110
REMARK   47  A    between atoms: _110  and  _111
REMARK   48  A    between atoms: _111  and  _112
REMARK   49  A    between atoms: _112  and  _113
REMARK   50  A    between atoms: _123  and  _124
REMARK   51  A    between atoms: _129  and  _131
REMARK   52  A    between atoms: _131  and  _132
REMARK   53  A    between atoms: _131  and  _134
REMARK   54  A    between atoms: _134  and  _135
REMARK   55  A    between atoms: _140  and  _141
REMARK   56  A    between atoms: _143  and  _145
REMARK   57  A    between atoms: _145  and  _146
REMARK   58  A    between atoms: _145  and  _148
REMARK   59  A    between atoms: _148  and  _149
REMARK   60  A    between atoms: _154  and  _155
REMARK   61  A    between atoms: _157  and  _159
REMARK   62  A    between atoms: _159  and  _160
REMARK   63  A    between atoms: _159  and  _162
REMARK   64  A    between atoms: _165  and  _167
REMARK   65  A    between atoms: _167  and  _168
REMARK   66  A    between atoms: _167  and  _170
REMARK   67  A    between atoms: _170  and  _171
REMARK   68  A    between atoms: _177  and  _178
REMARK   69  A    between atoms: _183  and  _185
REMARK   70  A    between atoms: _185  and  _186
REMARK   71  A    between atoms: _185  and  _188
REMARK   72  A    between atoms: _188  and  _189
REMARK   73  A    between atoms: _191  and  _193
REMARK   74  A    between atoms: _193  and  _194
REMARK   75  A    between atoms: _193  and  _196
REMARK   76  A    between atoms: _196  and  _197
REMARK   77  A    between atoms: _197  and  _198
REMARK   78  A    between atoms: _201  and  _203
REMARK   79  A    between atoms: _203  and  _204
REMARK   80  A    between atoms: _203  and  _206
REMARK   81  A    between atoms: _206  and  _207
REMARK   82  A    between atoms: _212  and  _213
REMARK   83  A    between atoms: _215  and  _217
REMARK   84  A    between atoms: _217  and  _218
REMARK   85  A    between atoms: _217  and  _220
REMARK   86  A    between atoms: _220  and  _221
REMARK   87  A    between atoms: _226  and  _228
REMARK   88  A    between atoms: _228  and  _229
REMARK   89  A    between atoms: _228  and  _231
REMARK   90  A    between atoms: _231  and  _232
REMARK   91  A    between atoms: _237  and  _239
REMARK   92  A    between atoms: _239  and  _240
REMARK   93  A    between atoms: _239  and  _242
REMARK   94  A    between atoms: _242  and  _243
REMARK   95  A    between atoms: _243  and  _244
REMARK   96  A    between atoms: _246  and  _248
REMARK   97  A    between atoms: _248  and  _249
REMARK   98  A    between atoms: _248  and  _251
REMARK   99  A    between atoms: _251  and  _252
REMARK  100  A    between atoms: _257  and  _258
REMARK  101  A    between atoms: _260  and  _262
REMARK  102  A    between atoms: _262  and  _263
REMARK  103  A    between atoms: _262  and  _265
REMARK  104  A    between atoms: _265  and  _266
REMARK  105  A    between atoms: _269  and  _271
REMARK  106  A    between atoms: _271  and  _272
REMARK  107  A    between atoms: _271  and  _274
REMARK  108  A    between atoms: _274  and  _275
REMARK  109  A    between atoms: _275  and  _491
REMARK  110  A    between atoms: _276  and  _278
REMARK  111  A    between atoms: _278  and  _279
REMARK  112  A    between atoms: _278  and  _281
REMARK  113  A    between atoms: _281  and  _282
REMARK  114  A    between atoms: _285  and  _287
REMARK  115  A    between atoms: _287  and  _288
REMARK  116  A    between atoms: _287  and  _290
REMARK  117  A    between atoms: _290  and  _291
REMARK  118  A    between atoms: _296  and  _297
REMARK  119  A    between atoms: _299  and  _301
REMARK  120  A    between atoms: _301  and  _302
REMARK  121  A    between atoms: _301  and  _304
REMARK  122  A    between atoms: _304  and  _305
REMARK  123  A    between atoms: _310  and  _311
REMARK  124  A    between atoms: _313  and  _315
REMARK  125  A    between atoms: _315  and  _316
REMARK  126  A    between atoms: _315  and  _318
REMARK  127  A    between atoms: _318  and  _319
REMARK  128  A    between atoms: _319  and  _320
REMARK  129  A    between atoms: _323  and  _325
REMARK  130  A    between atoms: _325  and  _326
REMARK  131  A    between atoms: _325  and  _328
REMARK  132  A    between atoms: _328  and  _329
REMARK  133  A    between atoms: _334  and  _335
REMARK  134  A    between atoms: _337  and  _339
REMARK  135  A    between atoms: _339  and  _340
REMARK  136  A    between atoms: _339  and  _342
REMARK  137  A    between atoms: _342  and  _343
REMARK  138  A    between atoms: _348  and  _350
REMARK  139  A    between atoms: _350  and  _351
REMARK  140  A    between atoms: _350  and  _353
REMARK  141  A    between atoms: _353  and  _354
REMARK  142  A    between atoms: _356  and  _358
REMARK  143  A    between atoms: _358  and  _359
REMARK  144  A    between atoms: _358  and  _361
REMARK  145  A    between atoms: _361  and  _362
REMARK  146  A    between atoms: _365  and  _367
REMARK  147  A    between atoms: _367  and  _368
REMARK  148  A    between atoms: _367  and  _370
REMARK  149  A    between atoms: _370  and  _371
REMARK  150  A    between atoms: _376  and  _378
REMARK  151  A    between atoms: _378  and  _379
REMARK  152  A    between atoms: _378  and  _381
REMARK  153  A    between atoms: _381  and  _382
REMARK  154  A    between atoms: _392  and  _394
REMARK  155  A    between atoms: _394  and  _395
REMARK  156  A    between atoms: _394  and  _397
REMARK  157  A    between atoms: _397  and  _398
REMARK  158  A    between atoms: _404  and  _406
REMARK  159  A    between atoms: _406  and  _407
REMARK  160  A    between atoms: _406  and  _409
REMARK  161  A    between atoms: _409  and  _410
REMARK  162  A    between atoms: _413  and  _415
REMARK  163  A    between atoms: _415  and  _416
REMARK  164  A    between atoms: _415  and  _418
REMARK  165  A    between atoms: _418  and  _419
REMARK  166  A    between atoms: _419  and  _420
REMARK  167  A    between atoms: _420  and  _421
REMARK  168  A    between atoms: _430  and  _432
REMARK  169  A    between atoms: _432  and  _433
REMARK  170  A    between atoms: _432  and  _435
REMARK  171  A    between atoms: _435  and  _436
REMARK  172  A    between atoms: _441  and  _443
REMARK  173  A    between atoms: _443  and  _444
REMARK  174  A    between atoms: _443  and  _446
REMARK  175  A    between atoms: _446  and  _447
REMARK  176  A    between atoms: _447  and  _448
REMARK  177  A    between atoms: _448  and  _449
REMARK  178  A    between atoms: _458  and  _460
REMARK  179  A    between atoms: _460  and  _461
REMARK  180  A    between atoms: _464  and  _466
REMARK  181  A    between atoms: _466  and  _467
REMARK  182  A    between atoms: _469  and  _471
REMARK  183  A    between atoms: _471  and  _472
REMARK  184  A    between atoms: _471  and  _474
REMARK  185  A    between atoms: _474  and  _475
REMARK  186  A    between atoms: _485  and  _487
REMARK  187  A    between atoms: _487  and  _488
REMARK  188  A    between atoms: _487  and  _490
REMARK  189  A    between atoms: _490  and  _491
REMARK  190  A    between atoms: _492  and  _494
REMARK  191  A    between atoms: _494  and  _495
REMARK  192  A    between atoms: _498  and  _500
REMARK  193  A    between atoms: _500  and  _501
REMARK  194  A    between atoms: _500  and  _503
REMARK  195  A    between atoms: _503  and  _504
REMARK  196  A    between atoms: _507  and  _509
REMARK  197  A    between atoms: _509  and  _510
REMARK  198  A    between atoms: _509  and  _512
REMARK  199  A    between atoms: _512  and  _513
REMARK  200  A    between atoms: _518  and  _519
REMARK  201  A    between atoms: _521  and  _523
REMARK  202  A    between atoms: _523  and  _524
REMARK  203  A    between atoms: _523  and  _526
REMARK  204  A    between atoms: _526  and  _527
REMARK  205  A    between atoms: _529  and  _531
REMARK  206  A    between atoms: _531  and  _532
REMARK  207  A    between atoms: _531  and  _534
REMARK  208  A    between atoms: _534  and  _535
REMARK  209  A    between atoms: _541  and  _543
REMARK  210  A    between atoms: _543  and  _544
REMARK  211  A    between atoms: _543  and  _546
REMARK  212  A    between atoms: _546  and  _547
REMARK  213  A    between atoms: _550  and  _552
REMARK  214  A    between atoms: _552  and  _553
REMARK  215  A    between atoms: _552  and  _555
REMARK  216  A    between atoms: _555  and  _556
REMARK  217  A    between atoms: _556  and  _557
REMARK  218  A    between atoms: _559  and  _561
REMARK  219  A    between atoms: _561  and  _562
REMARK  220  A    between atoms: _561  and  _564
REMARK  221  A    between atoms: _564  and  _565
REMARK  222  A    between atoms: _567  and  _569
REMARK  223  A    between atoms: _569  and  _570
REMARK  224  A    between atoms: _569  and  _572
REMARK  225  A    between atoms: _572  and  _573
REMARK  226  A    between atoms: _575  and  _577
REMARK  227  A    between atoms: _577  and  _578
REMARK  228  A    between atoms: _577  and  _580
REMARK  229  A    between atoms: _580  and  _581
REMARK  230  A    between atoms: _586  and  _588
REMARK  231  A    between atoms: _588  and  _589
REMARK  232  A    between atoms: _588  and  _591
REMARK  233  A    between atoms: _591  and  _592
REMARK  234  A    between atoms: _597  and  _599
REMARK  235  A    between atoms: _599  and  _600
REMARK  236  A    between atoms: _599  and  _602
REMARK  237  A    between atoms: _602  and  _603
REMARK  238  A    between atoms: _606  and  _608
REMARK  239  A    between atoms: _608  and  _609
REMARK  240  A    between atoms: _612  and  _614
REMARK  241  A    between atoms: _614  and  _615
REMARK  242  A    between atoms: _614  and  _617
REMARK  243  A    between atoms: _617  and  _618
REMARK  244  A    between atoms: _623  and  _625
REMARK  245  A    between atoms: _625  and  _626
REMARK  246  A    between atoms: _625  and  _628
REMARK  247  A    between atoms: _628  and  _629
REMARK  248  A    between atoms: _632  and  _634
REMARK  249  A    between atoms: _634  and  _635
REMARK  250  A    between atoms: _634  and  _637
REMARK  251  A    between atoms: _637  and  _638
REMARK  252  A    between atoms: _643  and  _644
REMARK  253  A    between atoms: _646  and  _648
REMARK  254  A    between atoms: _648  and  _649
REMARK  255  A    between atoms: _648  and  _651
REMARK  256  A    between atoms: _651  and  _652
REMARK  257  A    between atoms: _657  and  _658
REMARK  258  A    between atoms: _660  and  _662
REMARK  259  A    between atoms: _662  and  _663
REMARK  260  A    between atoms: _662  and  _665
REMARK  261  A    between atoms: _668  and  _670
REMARK  262  A    between atoms: _670  and  _671
REMARK  263  A    between atoms: _670  and  _673
REMARK  264  A    between atoms: _673  and  _674
REMARK  265  A    between atoms: _679  and  _681
REMARK  266  A    between atoms: _681  and  _682
REMARK  267  A    between atoms: _685  and  _687
REMARK  268  A    between atoms: _687  and  _688
REMARK  269  A    between atoms: _687  and  _690
REMARK  270  A    between atoms: _690  and  _691
REMARK  271  A    between atoms: _691  and  _692
REMARK  272  A    between atoms: _692  and  _693
REMARK  273  A    between atoms: _702  and  _704
REMARK  274  A    between atoms: _704  and  _705
REMARK  275  A    between atoms: _704  and  _707
REMARK  276  A    between atoms: _707  and  _708
REMARK  277  A    between atoms: _711  and  _713
REMARK  278  A    between atoms: _713  and  _714
REMARK  279  A    between atoms: _713  and  _716
REMARK  280  A    between atoms: _716  and  _717
REMARK  281  A    between atoms: _720  and  _722
REMARK  282  A    between atoms: _722  and  _723
REMARK  283  A    between atoms: _722  and  _725
REMARK  284  A    between atoms: _725  and  _726
REMARK                            x       y       z     vdW  Elec       q    Type
REMARK                         _______ _______ _______ _____ _____    ______ ____
ROOT
ATOM      1  O   HOH     1      13.870  26.300  19.803  0.00  0.00    +0.000 OA
ENDROOT
TORSDOF 0
REMARK  Name = ../refined-set-2016/1b0h/1b0h_pocket.pdb
REMARK  284 active torsions:
REMARK  status: ('A' for Active; 'I' for Inactive)
REMARK    1  A    between atoms: _1  and  _3
REMARK    2  A    between atoms: _3  and  _4
REMARK    3  A    between atoms: _3  and  _6
REMARK    4  A    between atoms: _6  and  _7
REMARK    5  A    between atoms: _12  and  _14
REMARK    6  A    between atoms: _14  and  _15
REMARK    7  A    between atoms: _17  and  _19
REMARK    8  A    between atoms: _19  and  _20
REMARK    9  A    between atoms: _19  and  _22
REMARK   10  A    between atoms: _22  and  _23
REMARK   11  A    between atoms: _25  and  _27
REMARK   12  A    between atoms: _27  and  _28
REMARK   13  A    between atoms: _27  and  _30
REMARK   14  A    between atoms: _30  and  _31
REMARK   15  A    between atoms: _31  and  _32
REMARK   16  A    between atoms: _37  and  _39
REMARK   17  A    between atoms: _39  and  _40
REMARK   18  A    between atoms: _39  and  _42
REMARK   19  A    between atoms: _42  and  _43
REMARK   20  A    between atoms: _46  and  _48
REMARK   21  A    between atoms: _48  and  _49
REMARK   22  A    between atoms: _48  and  _51
REMARK   23  A    between atoms: _51  and  _52
REMARK   24  A    between atoms: _52  and  _53
REMARK   25  A    between atoms: _56  and  _58
REMARK   26  A    between atoms: _58  and  _59
REMARK   27  A    between atoms: _61  and  _63
REMARK   28  A    between atoms: _63  and  _64
REMARK   29  A    between atoms: _63  and  _66
REMARK   30  A    between atoms: _70  and  _71
REMARK   31  A    between atoms: _76  and  _78
REMARK   32  A    between atoms: _78  and  _79
REMARK   33  A    between atoms: _78  and  _81
REMARK   34  A    between atoms: _81  and  _82
REMARK   35  A    between atoms: _82  and  _83
REMARK   36  A    between atoms: _86  and  _88
REMARK   37  A    between atoms: _88  and  _89
REMARK   38  A    between atoms: _88  and  _91
REMARK   39  A    between atoms: _91  and  _92
REMARK   40  A    between atoms: _94  and  _96
REMARK   41  A    between atoms: _96  and  _97
REMARK   42  A    between atoms: _96  and  _99
REMARK   43  A    between atoms: _99  and  _100
REMARK   44  A    between atoms: _105  and  _107
REMARK   45  A    between atoms: _107  and  _108
REMARK   46  A    between atoms: _107  and  _110
REMARK   47  A    between atoms: _110  and  _111
REMARK   48  A    between atoms: _111  and  _112
REMARK   49  A    between atoms: _112  and  _113
REMARK   50  A    between atoms: _123  and  _124
REMARK   51  A    between atoms: _129  and  _131
REMARK   52  A    between atoms: _131  and  _132
REMARK   53  A    between atoms: _131  and  _134
REMARK   54  A    between atoms: _134  and  _135
REMARK   55  A    between atoms: _140  and  _141
REMARK   56  A    between atoms: _143  and  _145
REMARK   57  A    between atoms: _145  and  _146
REMARK   58  A    between atoms: _145  and  _148
REMARK   59  A    between atoms: _148  and  _149
REMARK   60  A    between atoms: _154  and  _155
REMARK   61  A    between atoms: _157  and  _159
REMARK   62  A    between atoms: _159  and  _160
REMARK   63  A    between atoms: _159  and  _162
REMARK   64  A    between atoms: _165  and  _167
REMARK   65  A    between atoms: _167  and  _168
REMARK   66  A    between atoms: _167  and  _170
REMARK   67  A    between atoms: _170  and  _171
REMARK   68  A    between atoms: _177  and  _178
REMARK   69  A    between atoms: _183  and  _185
REMARK   70  A    between atoms: _185  and  _186
REMARK   71  A    between atoms: _185  and  _188
REMARK   72  A    between atoms: _188  and  _189
REMARK   73  A    between atoms: _191  and  _193
REMARK   74  A    between atoms: _193  and  _194
REMARK   75  A    between atoms: _193  and  _196
REMARK   76  A    between atoms: _196  and  _197
REMARK   77  A    between atoms: _197  and  _198
REMARK   78  A    between atoms: _201  and  _203
REMARK   79  A    between atoms: _203  and  _204
REMARK   80  A    between atoms: _203  and  _206
REMARK   81  A    between atoms: _206  and  _207
REMARK   82  A    between atoms: _212  and  _213
REMARK   83  A    between atoms: _215  and  _217
REMARK   84  A    between atoms: _217  and  _218
REMARK   85  A    between atoms: _217  and  _220
REMARK   86  A    between atoms: _220  and  _221
REMARK   87  A    between atoms: _226  and  _228
REMARK   88  A    between atoms: _228  and  _229
REMARK   89  A    between atoms: _228  and  _231
REMARK   90  A    between atoms: _231  and  _232
REMARK   91  A    between atoms: _237  and  _239
REMARK   92  A    between atoms: _239  and  _240
REMARK   93  A    between atoms: _239  and  _242
REMARK   94  A    between atoms: _242  and  _243
REMARK   95  A    between atoms: _243  and  _244
REMARK   96  A    between atoms: _246  and  _248
REMARK   97  A    between atoms: _248  and  _249
REMARK   98  A    between atoms: _248  and  _251
REMARK   99  A    between atoms: _251  and  _252
REMARK  100  A    between atoms: _257  and  _258
REMARK  101  A    between atoms: _260  and  _262
REMARK  102  A    between atoms: _262  and  _263
REMARK  103  A    between atoms: _262  and  _265
REMARK  104  A    between atoms: _265  and  _266
REMARK  105  A    between atoms: _269  and  _271
REMARK  106  A    between atoms: _271  and  _272
REMARK  107  A    between atoms: _271  and  _274
REMARK  108  A    between atoms: _274  and  _275
REMARK  109  A    between atoms: _275  and  _491
REMARK  110  A    between atoms: _276  and  _278
REMARK  111  A    between atoms: _278  and  _279
REMARK  112  A    between atoms: _278  and  _281
REMARK  113  A    between atoms: _281  and  _282
REMARK  114  A    between atoms: _285  and  _287
REMARK  115  A    between atoms: _287  and  _288
REMARK  116  A    between atoms: _287  and  _290
REMARK  117  A    between atoms: _290  and  _291
REMARK  118  A    between atoms: _296  and  _297
REMARK  119  A    between atoms: _299  and  _301
REMARK  120  A    between atoms: _301  and  _302
REMARK  121  A    between atoms: _301  and  _304
REMARK  122  A    between atoms: _304  and  _305
REMARK  123  A    between atoms: _310  and  _311
REMARK  124  A    between atoms: _313  and  _315
REMARK  125  A    between atoms: _315  and  _316
REMARK  126  A    between atoms: _315  and  _318
REMARK  127  A    between atoms: _318  and  _319
REMARK  128  A    between atoms: _319  and  _320
REMARK  129  A    between atoms: _323  and  _325
REMARK  130  A    between atoms: _325  and  _326
REMARK  131  A    between atoms: _325  and  _328
REMARK  132  A    between atoms: _328  and  _329
REMARK  133  A    between atoms: _334  and  _335
REMARK  134  A    between atoms: _337  and  _339
REMARK  135  A    between atoms: _339  and  _340
REMARK  136  A    between atoms: _339  and  _342
REMARK  137  A    between atoms: _342  and  _343
REMARK  138  A    between atoms: _348  and  _350
REMARK  139  A    between atoms: _350  and  _351
REMARK  140  A    between atoms: _350  and  _353
REMARK  141  A    between atoms: _353  and  _354
REMARK  142  A    between atoms: _356  and  _358
REMARK  143  A    between atoms: _358  and  _359
REMARK  144  A    between atoms: _358  and  _361
REMARK  145  A    between atoms: _361  and  _362
REMARK  146  A    between atoms: _365  and  _367
REMARK  147  A    between atoms: _367  and  _368
REMARK  148  A    between atoms: _367  and  _370
REMARK  149  A    between atoms: _370  and  _371
REMARK  150  A    between atoms: _376  and  _378
REMARK  151  A    between atoms: _378  and  _379
REMARK  152  A    between atoms: _378  and  _381
REMARK  153  A    between atoms: _381  and  _382
REMARK  154  A    between atoms: _392  and  _394
REMARK  155  A    between atoms: _394  and  _395
REMARK  156  A    between atoms: _394  and  _397
REMARK  157  A    between atoms: _397  and  _398
REMARK  158  A    between atoms: _404  and  _406
REMARK  159  A    between atoms: _406  and  _407
REMARK  160  A    between atoms: _406  and  _409
REMARK  161  A    between atoms: _409  and  _410
REMARK  162  A    between atoms: _413  and  _415
REMARK  163  A    between atoms: _415  and  _416
REMARK  164  A    between atoms: _415  and  _418
REMARK  165  A    between atoms: _418  and  _419
REMARK  166  A    between atoms: _419  and  _420
REMARK  167  A    between atoms: _420  and  _421
REMARK  168  A    between atoms: _430  and  _432
REMARK  169  A    between atoms: _432  and  _433
REMARK  170  A    between atoms: _432  and  _435
REMARK  171  A    between atoms: _435  and  _436
REMARK  172  A    between atoms: _441  and  _443
REMARK  173  A    between atoms: _443  and  _444
REMARK  174  A    between atoms: _443  and  _446
REMARK  175  A    between atoms: _446  and  _447
REMARK  176  A    between atoms: _447  and  _448
REMARK  177  A    between atoms: _448  and  _449
REMARK  178  A    between atoms: _458  and  _460
REMARK  179  A    between atoms: _460  and  _461
REMARK  180  A    between atoms: _464  and  _466
REMARK  181  A    between atoms: _466  and  _467
REMARK  182  A    between atoms: _469  and  _471
REMARK  183  A    between atoms: _471  and  _472
REMARK  184  A    between atoms: _471  and  _474
REMARK  185  A    between atoms: _474  and  _475
REMARK  186  A    between atoms: _485  and  _487
REMARK  187  A    between atoms: _487  and  _488
REMARK  188  A    between atoms: _487  and  _490
REMARK  189  A    between atoms: _490  and  _491
REMARK  190  A    between atoms: _492  and  _494
REMARK  191  A    between atoms: _494  and  _495
REMARK  192  A    between atoms: _498  and  _500
REMARK  193  A    between atoms: _500  and  _501
REMARK  194  A    between atoms: _500  and  _503
REMARK  195  A    between atoms: _503  and  _504
REMARK  196  A    between atoms: _507  and  _509
REMARK  197  A    between atoms: _509  and  _510
REMARK  198  A    between atoms: _509  and  _512
REMARK  199  A    between atoms: _512  and  _513
REMARK  200  A    between atoms: _518  and  _519
REMARK  201  A    between atoms: _521  and  _523
REMARK  202  A    between atoms: _523  and  _524
REMARK  203  A    between atoms: _523  and  _526
REMARK  204  A    between atoms: _526  and  _527
REMARK  205  A    between atoms: _529  and  _531
REMARK  206  A    between atoms: _531  and  _532
REMARK  207  A    between atoms: _531  and  _534
REMARK  208  A    between atoms: _534  and  _535
REMARK  209  A    between atoms: _541  and  _543
REMARK  210  A    between atoms: _543  and  _544
REMARK  211  A    between atoms: _543  and  _546
REMARK  212  A    between atoms: _546  and  _547
REMARK  213  A    between atoms: _550  and  _552
REMARK  214  A    between atoms: _552  and  _553
REMARK  215  A    between atoms: _552  and  _555
REMARK  216  A    between atoms: _555  and  _556
REMARK  217  A    between atoms: _556  and  _557
REMARK  218  A    between atoms: _559  and  _561
REMARK  219  A    between atoms: _561  and  _562
REMARK  220  A    between atoms: _561  and  _564
REMARK  221  A    between atoms: _564  and  _565
REMARK  222  A    between atoms: _567  and  _569
REMARK  223  A    between atoms: _569  and  _570
REMARK  224  A    between atoms: _569  and  _572
REMARK  225  A    between atoms: _572  and  _573
REMARK  226  A    between atoms: _575  and  _577
REMARK  227  A    between atoms: _577  and  _578
REMARK  228  A    between atoms: _577  and  _580
REMARK  229  A    between atoms: _580  and  _581
REMARK  230  A    between atoms: _586  and  _588
REMARK  231  A    between atoms: _588  and  _589
REMARK  232  A    between atoms: _588  and  _591
REMARK  233  A    between atoms: _591  and  _592
REMARK  234  A    between atoms: _597  and  _599
REMARK  235  A    between atoms: _599  and  _600
REMARK  236  A    between atoms: _599  and  _602
REMARK  237  A    between atoms: _602  and  _603
REMARK  238  A    between atoms: _606  and  _608
REMARK  239  A    between atoms: _608  and  _609
REMARK  240  A    between atoms: _612  and  _614
REMARK  241  A    between atoms: _614  and  _615
REMARK  242  A    between atoms: _614  and  _617
REMARK  243  A    between atoms: _617  and  _618
REMARK  244  A    between atoms: _623  and  _625
REMARK  245  A    between atoms: _625  and  _626
REMARK  246  A    between atoms: _625  and  _628
REMARK  247  A    between atoms: _628  and  _629
REMARK  248  A    between atoms: _632  and  _634
REMARK  249  A    between atoms: _634  and  _635
REMARK  250  A    between atoms: _634  and  _637
REMARK  251  A    between atoms: _637  and  _638
REMARK  252  A    between atoms: _643  and  _644
REMARK  253  A    between atoms: _646  and  _648
REMARK  254  A    between atoms: _648  and  _649
REMARK  255  A    between atoms: _648  and  _651
REMARK  256  A    between atoms: _651  and  _652
REMARK  257  A    between atoms: _657  and  _658
REMARK  258  A    between atoms: _660  and  _662
REMARK  259  A    between atoms: _662  and  _663
REMARK  260  A    between atoms: _662  and  _665
REMARK  261  A    between atoms: _668  and  _670
REMARK  262  A    between atoms: _670  and  _671
REMARK  263  A    between atoms: _670  and  _673
REMARK  264  A    between atoms: _673  and  _674
REMARK  265  A    between atoms: _679  and  _681
REMARK  266  A    between atoms: _681  and  _682
REMARK  267  A    between atoms: _685  and  _687
REMARK  268  A    between atoms: _687  and  _688
REMARK  269  A    between atoms: _687  and  _690
REMARK  270  A    between atoms: _690  and  _691
REMARK  271  A    between atoms: _691  and  _692
REMARK  272  A    between atoms: _692  and  _693
REMARK  273  A    between atoms: _702  and  _704
REMARK  274  A    between atoms: _704  and  _705
REMARK  275  A    between atoms: _704  and  _707
REMARK  276  A    between atoms: _707  and  _708
REMARK  277  A    between atoms: _711  and  _713
REMARK  278  A    between atoms: _713  and  _714
REMARK  279  A    between atoms: _713  and  _716
REMARK  280  A    between atoms: _716  and  _717
REMARK  281  A    between atoms: _720  and  _722
REMARK  282  A    between atoms: _722  and  _723
REMARK  283  A    between atoms: _722  and  _725
REMARK  284  A    between atoms: _725  and  _726
REMARK                            x       y       z     vdW  Elec       q    Type
REMARK                         _______ _______ _______ _____ _____    ______ ____
ROOT
ATOM      1  O   HOH     1      -8.381  14.433  12.402  0.00  0.00    +0.000 OA
ENDROOT
TORSDOF 0
REMARK  Name = ../refined-set-2016/1b0h/1b0h_pocket.pdb
REMARK  284 active torsions:
REMARK  status: ('A' for Active; 'I' for Inactive)
REMARK    1  A    between atoms: _1  and  _3
REMARK    2  A    between atoms: _3  and  _4
REMARK    3  A    between atoms: _3  and  _6
REMARK    4  A    between atoms: _6  and  _7
REMARK    5  A    between atoms: _12  and  _14
REMARK    6  A    between atoms: _14  and  _15
REMARK    7  A    between atoms: _17  and  _19
REMARK    8  A    between atoms: _19  and  _20
REMARK    9  A    between atoms: _19  and  _22
REMARK   10  A    between atoms: _22  and  _23
REMARK   11  A    between atoms: _25  and  _27
REMARK   12  A    between atoms: _27  and  _28
REMARK   13  A    between atoms: _27  and  _30
REMARK   14  A    between atoms: _30  and  _31
REMARK   15  A    between atoms: _31  and  _32
REMARK   16  A    between atoms: _37  and  _39
REMARK   17  A    between atoms: _39  and  _40
REMARK   18  A    between atoms: _39  and  _42
REMARK   19  A    between atoms: _42  and  _43
REMARK   20  A    between atoms: _46  and  _48
REMARK   21  A    between atoms: _48  and  _49
REMARK   22  A    between atoms: _48  and  _51
REMARK   23  A    between atoms: _51  and  _52
REMARK   24  A    between atoms: _52  and  _53
REMARK   25  A    between atoms: _56  and  _58
REMARK   26  A    between atoms: _58  and  _59
REMARK   27  A    between atoms: _61  and  _63
REMARK   28  A    between atoms: _63  and  _64
REMARK   29  A    between atoms: _63  and  _66
REMARK   30  A    between atoms: _70  and  _71
REMARK   31  A    between atoms: _76  and  _78
REMARK   32  A    between atoms: _78  and  _79
REMARK   33  A    between atoms: _78  and  _81
REMARK   34  A    between atoms: _81  and  _82
REMARK   35  A    between atoms: _82  and  _83
REMARK   36  A    between atoms: _86  and  _88
REMARK   37  A    between atoms: _88  and  _89
REMARK   38  A    between atoms: _88  and  _91
REMARK   39  A    between atoms: _91  and  _92
REMARK   40  A    between atoms: _94  and  _96
REMARK   41  A    between atoms: _96  and  _97
REMARK   42  A    between atoms: _96  and  _99
REMARK   43  A    between atoms: _99  and  _100
REMARK   44  A    between atoms: _105  and  _107
REMARK   45  A    between atoms: _107  and  _108
REMARK   46  A    between atoms: _107  and  _110
REMARK   47  A    between atoms: _110  and  _111
REMARK   48  A    between atoms: _111  and  _112
REMARK   49  A    between atoms: _112  and  _113
REMARK   50  A    between atoms: _123  and  _124
REMARK   51  A    between atoms: _129  and  _131
REMARK   52  A    between atoms: _131  and  _132
REMARK   53  A    between atoms: _131  and  _134
REMARK   54  A    between atoms: _134  and  _135
REMARK   55  A    between atoms: _140  and  _141
REMARK   56  A    between atoms: _143  and  _145
REMARK   57  A    between atoms: _145  and  _146
REMARK   58  A    between atoms: _145  and  _148
REMARK   59  A    between atoms: _148  and  _149
REMARK   60  A    between atoms: _154  and  _155
REMARK   61  A    between atoms: _157  and  _159
REMARK   62  A    between atoms: _159  and  _160
REMARK   63  A    between atoms: _159  and  _162
REMARK   64  A    between atoms: _165  and  _167
REMARK   65  A    between atoms: _167  and  _168
REMARK   66  A    between atoms: _167  and  _170
REMARK   67  A    between atoms: _170  and  _171
REMARK   68  A    between atoms: _177  and  _178
REMARK   69  A    between atoms: _183  and  _185
REMARK   70  A    between atoms: _185  and  _186
REMARK   71  A    between atoms: _185  and  _188
REMARK   72  A    between atoms: _188  and  _189
REMARK   73  A    between atoms: _191  and  _193
REMARK   74  A    between atoms: _193  and  _194
REMARK   75  A    between atoms: _193  and  _196
REMARK   76  A    between atoms: _196  and  _197
REMARK   77  A    between atoms: _197  and  _198
REMARK   78  A    between atoms: _201  and  _203
REMARK   79  A    between atoms: _203  and  _204
REMARK   80  A    between atoms: _203  and  _206
REMARK   81  A    between atoms: _206  and  _207
REMARK   82  A    between atoms: _212  and  _213
REMARK   83  A    between atoms: _215  and  _217
REMARK   84  A    between atoms: _217  and  _218
REMARK   85  A    between atoms: _217  and  _220
REMARK   86  A    between atoms: _220  and  _221
REMARK   87  A    between atoms: _226  and  _228
REMARK   88  A    between atoms: _228  and  _229
REMARK   89  A    between atoms: _228  and  _231
REMARK   90  A    between atoms: _231  and  _232
REMARK   91  A    between atoms: _237  and  _239
REMARK   92  A    between atoms: _239  and  _240
REMARK   93  A    between atoms: _239  and  _242
REMARK   94  A    between atoms: _242  and  _243
REMARK   95  A    between atoms: _243  and  _244
REMARK   96  A    between atoms: _246  and  _248
REMARK   97  A    between atoms: _248  and  _249
REMARK   98  A    between atoms: _248  and  _251
REMARK   99  A    between atoms: _251  and  _252
REMARK  100  A    between atoms: _257  and  _258
REMARK  101  A    between atoms: _260  and  _262
REMARK  102  A    between atoms: _262  and  _263
REMARK  103  A    between atoms: _262  and  _265
REMARK  104  A    between atoms: _265  and  _266
REMARK  105  A    between atoms: _269  and  _271
REMARK  106  A    between atoms: _271  and  _272
REMARK  107  A    between atoms: _271  and  _274
REMARK  108  A    between atoms: _274  and  _275
REMARK  109  A    between atoms: _275  and  _491
REMARK  110  A    between atoms: _276  and  _278
REMARK  111  A    between atoms: _278  and  _279
REMARK  112  A    between atoms: _278  and  _281
REMARK  113  A    between atoms: _281  and  _282
REMARK  114  A    between atoms: _285  and  _287
REMARK  115  A    between atoms: _287  and  _288
REMARK  116  A    between atoms: _287  and  _290
REMARK  117  A    between atoms: _290  and  _291
REMARK  118  A    between atoms: _296  and  _297
REMARK  119  A    between atoms: _299  and  _301
REMARK  120  A    between atoms: _301  and  _302
REMARK  121  A    between atoms: _301  and  _304
REMARK  122  A    between atoms: _304  and  _305
REMARK  123  A    between atoms: _310  and  _311
REMARK  124  A    between atoms: _313  and  _315
REMARK  125  A    between atoms: _315  and  _316
REMARK  126  A    between atoms: _315  and  _318
REMARK  127  A    between atoms: _318  and  _319
REMARK  128  A    between atoms: _319  and  _320
REMARK  129  A    between atoms: _323  and  _325
REMARK  130  A    between atoms: _325  and  _326
REMARK  131  A    between atoms: _325  and  _328
REMARK  132  A    between atoms: _328  and  _329
REMARK  133  A    between atoms: _334  and  _335
REMARK  134  A    between atoms: _337  and  _339
REMARK  135  A    between atoms: _339  and  _340
REMARK  136  A    between atoms: _339  and  _342
REMARK  137  A    between atoms: _342  and  _343
REMARK  138  A    between atoms: _348  and  _350
REMARK  139  A    between atoms: _350  and  _351
REMARK  140  A    between atoms: _350  and  _353
REMARK  141  A    between atoms: _353  and  _354
REMARK  142  A    between atoms: _356  and  _358
REMARK  143  A    between atoms: _358  and  _359
REMARK  144  A    between atoms: _358  and  _361
REMARK  145  A    between atoms: _361  and  _362
REMARK  146  A    between atoms: _365  and  _367
REMARK  147  A    between atoms: _367  and  _368
REMARK  148  A    between atoms: _367  and  _370
REMARK  149  A    between atoms: _370  and  _371
REMARK  150  A    between atoms: _376  and  _378
REMARK  151  A    between atoms: _378  and  _379
REMARK  152  A    between atoms: _378  and  _381
REMARK  153  A    between atoms: _381  and  _382
REMARK  154  A    between atoms: _392  and  _394
REMARK  155  A    between atoms: _394  and  _395
REMARK  156  A    between atoms: _394  and  _397
REMARK  157  A    between atoms: _397  and  _398
REMARK  158  A    between atoms: _404  and  _406
REMARK  159  A    between atoms: _406  and  _407
REMARK  160  A    between atoms: _406  and  _409
REMARK  161  A    between atoms: _409  and  _410
REMARK  162  A    between atoms: _413  and  _415
REMARK  163  A    between atoms: _415  and  _416
REMARK  164  A    between atoms: _415  and  _418
REMARK  165  A    between atoms: _418  and  _419
REMARK  166  A    between atoms: _419  and  _420
REMARK  167  A    between atoms: _420  and  _421
REMARK  168  A    between atoms: _430  and  _432
REMARK  169  A    between atoms: _432  and  _433
REMARK  170  A    between atoms: _432  and  _435
REMARK  171  A    between atoms: _435  and  _436
REMARK  172  A    between atoms: _441  and  _443
REMARK  173  A    between atoms: _443  and  _444
REMARK  174  A    between atoms: _443  and  _446
REMARK  175  A    between atoms: _446  and  _447
REMARK  176  A    between atoms: _447  and  _448
REMARK  177  A    between atoms: _448  and  _449
REMARK  178  A    between atoms: _458  and  _460
REMARK  179  A    between atoms: _460  and  _461
REMARK  180  A    between atoms: _464  and  _466
REMARK  181  A    between atoms: _466  and  _467
REMARK  182  A    between atoms: _469  and  _471
REMARK  183  A    between atoms: _471  and  _472
REMARK  184  A    between atoms: _471  and  _474
REMARK  185  A    between atoms: _474  and  _475
REMARK  186  A    between atoms: _485  and  _487
REMARK  187  A    between atoms: _487  and  _488
REMARK  188  A    between atoms: _487  and  _490
REMARK  189  A    between atoms: _490  and  _491
REMARK  190  A    between atoms: _492  and  _494
REMARK  191  A    between atoms: _494  and  _495
REMARK  192  A    between atoms: _498  and  _500
REMARK  193  A    between atoms: _500  and  _501
REMARK  194  A    between atoms: _500  and  _503
REMARK  195  A    between atoms: _503  and  _504
REMARK  196  A    between atoms: _507  and  _509
REMARK  197  A    between atoms: _509  and  _510
REMARK  198  A    between atoms: _509  and  _512
REMARK  199  A    between atoms: _512  and  _513
REMARK  200  A    between atoms: _518  and  _519
REMARK  201  A    between atoms: _521  and  _523
REMARK  202  A    between atoms: _523  and  _524
REMARK  203  A    between atoms: _523  and  _526
REMARK  204  A    between atoms: _526  and  _527
REMARK  205  A    between atoms: _529  and  _531
REMARK  206  A    between atoms: _531  and  _532
REMARK  207  A    between atoms: _531  and  _534
REMARK  208  A    between atoms: _534  and  _535
REMARK  209  A    between atoms: _541  and  _543
REMARK  210  A    between atoms: _543  and  _544
REMARK  211  A    between atoms: _543  and  _546
REMARK  212  A    between atoms: _546  and  _547
REMARK  213  A    between atoms: _550  and  _552
REMARK  214  A    between atoms: _552  and  _553
REMARK  215  A    between atoms: _552  and  _555
REMARK  216  A    between atoms: _555  and  _556
REMARK  217  A    between atoms: _556  and  _557
REMARK  218  A    between atoms: _559  and  _561
REMARK  219  A    between atoms: _561  and  _562
REMARK  220  A    between atoms: _561  and  _564
REMARK  221  A    between atoms: _564  and  _565
REMARK  222  A    between atoms: _567  and  _569
REMARK  223  A    between atoms: _569  and  _570
REMARK  224  A    between atoms: _569  and  _572
REMARK  225  A    between atoms: _572  and  _573
REMARK  226  A    between atoms: _575  and  _577
REMARK  227  A    between atoms: _577  and  _578
REMARK  228  A    between atoms: _577  and  _580
REMARK  229  A    between atoms: _580  and  _581
REMARK  230  A    between atoms: _586  and  _588
REMARK  231  A    between atoms: _588  and  _589
REMARK  232  A    between atoms: _588  and  _591
REMARK  233  A    between atoms: _591  and  _592
REMARK  234  A    between atoms: _597  and  _599
REMARK  235  A    between atoms: _599  and  _600
REMARK  236  A    between atoms: _599  and  _602
REMARK  237  A    between atoms: _602  and  _603
REMARK  238  A    between atoms: _606  and  _608
REMARK  239  A    between atoms: _608  and  _609
REMARK  240  A    between atoms: _612  and  _614
REMARK  241  A    between atoms: _614  and  _615
REMARK  242  A    between atoms: _614  and  _617
REMARK  243  A    between atoms: _617  and  _618
REMARK  244  A    between atoms: _623  and  _625
REMARK  245  A    between atoms: _625  and  _626
REMARK  246  A    between atoms: _625  and  _628
REMARK  247  A    between atoms: _628  and  _629
REMARK  248  A    between atoms: _632  and  _634
REMARK  249  A    between atoms: _634  and  _635
REMARK  250  A    between atoms: _634  and  _637
REMARK  251  A    between atoms: _637  and  _638
REMARK  252  A    between atoms: _643  and  _644
REMARK  253  A    between atoms: _646  and  _648
REMARK  254  A    between atoms: _648  and  _649
REMARK  255  A    between atoms: _648  and  _651
REMARK  256  A    between atoms: _651  and  _652
REMARK  257  A    between atoms: _657  and  _658
REMARK  258  A    between atoms: _660  and  _662
REMARK  259  A    between atoms: _662  and  _663
REMARK  260  A    between atoms: _662  and  _665
REMARK  261  A    between atoms: _668  and  _670
REMARK  262  A    between atoms: _670  and  _671
REMARK  263  A    between atoms: _670  and  _673
REMARK  264  A    between atoms: _673  and  _674
REMARK  265  A    between atoms: _679  and  _681
REMARK  266  A    between atoms: _681  and  _682
REMARK  267  A    between atoms: _685  and  _687
REMARK  268  A    between atoms: _687  and  _688
REMARK  269  A    between atoms: _687  and  _690
REMARK  270  A    between atoms: _690  and  _691
REMARK  271  A    between atoms: _691  and  _692
REMARK  272  A    between atoms: _692  and  _693
REMARK  273  A    between atoms: _702  and  _704
REMARK  274  A    between atoms: _704  and  _705
REMARK  275  A    between atoms: _704  and  _707
REMARK  276  A    between atoms: _707  and  _708
REMARK  277  A    between atoms: _711  and  _713
REMARK  278  A    between atoms: _713  and  _714
REMARK  279  A    between atoms: _713  and  _716
REMARK  280  A    between atoms: _716  and  _717
REMARK  281  A    between atoms: _720  and  _722
REMARK  282  A    between atoms: _722  and  _723
REMARK  283  A    between atoms: _722  and  _725
REMARK  284  A    between atoms: _725  and  _726
REMARK                            x       y       z     vdW  Elec       q    Type
REMARK                         _______ _______ _______ _____ _____    ______ ____
ROOT
ATOM      1  O   HOH     1      -7.359  23.673  12.280  0.00  0.00    +0.000 OA
ENDROOT
TORSDOF 0
REMARK  Name = ../refined-set-2016/1b0h/1b0h_pocket.pdb
REMARK  284 active torsions:
REMARK  status: ('A' for Active; 'I' for Inactive)
REMARK    1  A    between atoms: _1  and  _3
REMARK    2  A    between atoms: _3  and  _4
REMARK    3  A    between atoms: _3  and  _6
REMARK    4  A    between atoms: _6  and  _7
REMARK    5  A    between atoms: _12  and  _14
REMARK    6  A    between atoms: _14  and  _15
REMARK    7  A    between atoms: _17  and  _19
REMARK    8  A    between atoms: _19  and  _20
REMARK    9  A    between atoms: _19  and  _22
REMARK   10  A    between atoms: _22  and  _23
REMARK   11  A    between atoms: _25  and  _27
REMARK   12  A    between atoms: _27  and  _28
REMARK   13  A    between atoms: _27  and  _30
REMARK   14  A    between atoms: _30  and  _31
REMARK   15  A    between atoms: _31  and  _32
REMARK   16  A    between atoms: _37  and  _39
REMARK   17  A    between atoms: _39  and  _40
REMARK   18  A    between atoms: _39  and  _42
REMARK   19  A    between atoms: _42  and  _43
REMARK   20  A    between atoms: _46  and  _48
REMARK   21  A    between atoms: _48  and  _49
REMARK   22  A    between atoms: _48  and  _51
REMARK   23  A    between atoms: _51  and  _52
REMARK   24  A    between atoms: _52  and  _53
REMARK   25  A    between atoms: _56  and  _58
REMARK   26  A    between atoms: _58  and  _59
REMARK   27  A    between atoms: _61  and  _63
REMARK   28  A    between atoms: _63  and  _64
REMARK   29  A    between atoms: _63  and  _66
REMARK   30  A    between atoms: _70  and  _71
REMARK   31  A    between atoms: _76  and  _78
REMARK   32  A    between atoms: _78  and  _79
REMARK   33  A    between atoms: _78  and  _81
REMARK   34  A    between atoms: _81  and  _82
REMARK   35  A    between atoms: _82  and  _83
REMARK   36  A    between atoms: _86  and  _88
REMARK   37  A    between atoms: _88  and  _89
REMARK   38  A    between atoms: _88  and  _91
REMARK   39  A    between atoms: _91  and  _92
REMARK   40  A    between atoms: _94  and  _96
REMARK   41  A    between atoms: _96  and  _97
REMARK   42  A    between atoms: _96  and  _99
REMARK   43  A    between atoms: _99  and  _100
REMARK   44  A    between atoms: _105  and  _107
REMARK   45  A    between atoms: _107  and  _108
REMARK   46  A    between atoms: _107  and  _110
REMARK   47  A    between atoms: _110  and  _111
REMARK   48  A    between atoms: _111  and  _112
REMARK   49  A    between atoms: _112  and  _113
REMARK   50  A    between atoms: _123  and  _124
REMARK   51  A    between atoms: _129  and  _131
REMARK   52  A    between atoms: _131  and  _132
REMARK   53  A    between atoms: _131  and  _134
REMARK   54  A    between atoms: _134  and  _135
REMARK   55  A    between atoms: _140  and  _141
REMARK   56  A    between atoms: _143  and  _145
REMARK   57  A    between atoms: _145  and  _146
REMARK   58  A    between atoms: _145  and  _148
REMARK   59  A    between atoms: _148  and  _149
REMARK   60  A    between atoms: _154  and  _155
REMARK   61  A    between atoms: _157  and  _159
REMARK   62  A    between atoms: _159  and  _160
REMARK   63  A    between atoms: _159  and  _162
REMARK   64  A    between atoms: _165  and  _167
REMARK   65  A    between atoms: _167  and  _168
REMARK   66  A    between atoms: _167  and  _170
REMARK   67  A    between atoms: _170  and  _171
REMARK   68  A    between atoms: _177  and  _178
REMARK   69  A    between atoms: _183  and  _185
REMARK   70  A    between atoms: _185  and  _186
REMARK   71  A    between atoms: _185  and  _188
REMARK   72  A    between atoms: _188  and  _189
REMARK   73  A    between atoms: _191  and  _193
REMARK   74  A    between atoms: _193  and  _194
REMARK   75  A    between atoms: _193  and  _196
REMARK   76  A    between atoms: _196  and  _197
REMARK   77  A    between atoms: _197  and  _198
REMARK   78  A    between atoms: _201  and  _203
REMARK   79  A    between atoms: _203  and  _204
REMARK   80  A    between atoms: _203  and  _206
REMARK   81  A    between atoms: _206  and  _207
REMARK   82  A    between atoms: _212  and  _213
REMARK   83  A    between atoms: _215  and  _217
REMARK   84  A    between atoms: _217  and  _218
REMARK   85  A    between atoms: _217  and  _220
REMARK   86  A    between atoms: _220  and  _221
REMARK   87  A    between atoms: _226  and  _228
REMARK   88  A    between atoms: _228  and  _229
REMARK   89  A    between atoms: _228  and  _231
REMARK   90  A    between atoms: _231  and  _232
REMARK   91  A    between atoms: _237  and  _239
REMARK   92  A    between atoms: _239  and  _240
REMARK   93  A    between atoms: _239  and  _242
REMARK   94  A    between atoms: _242  and  _243
REMARK   95  A    between atoms: _243  and  _244
REMARK   96  A    between atoms: _246  and  _248
REMARK   97  A    between atoms: _248  and  _249
REMARK   98  A    between atoms: _248  and  _251
REMARK   99  A    between atoms: _251  and  _252
REMARK  100  A    between atoms: _257  and  _258
REMARK  101  A    between atoms: _260  and  _262
REMARK  102  A    between atoms: _262  and  _263
REMARK  103  A    between atoms: _262  and  _265
REMARK  104  A    between atoms: _265  and  _266
REMARK  105  A    between atoms: _269  and  _271
REMARK  106  A    between atoms: _271  and  _272
REMARK  107  A    between atoms: _271  and  _274
REMARK  108  A    between atoms: _274  and  _275
REMARK  109  A    between atoms: _275  and  _491
REMARK  110  A    between atoms: _276  and  _278
REMARK  111  A    between atoms: _278  and  _279
REMARK  112  A    between atoms: _278  and  _281
REMARK  113  A    between atoms: _281  and  _282
REMARK  114  A    between atoms: _285  and  _287
REMARK  115  A    between atoms: _287  and  _288
REMARK  116  A    between atoms: _287  and  _290
REMARK  117  A    between atoms: _290  and  _291
REMARK  118  A    between atoms: _296  and  _297
REMARK  119  A    between atoms: _299  and  _301
REMARK  120  A    between atoms: _301  and  _302
REMARK  121  A    between atoms: _301  and  _304
REMARK  122  A    between atoms: _304  and  _305
REMARK  123  A    between atoms: _310  and  _311
REMARK  124  A    between atoms: _313  and  _315
REMARK  125  A    between atoms: _315  and  _316
REMARK  126  A    between atoms: _315  and  _318
REMARK  127  A    between atoms: _318  and  _319
REMARK  128  A    between atoms: _319  and  _320
REMARK  129  A    between atoms: _323  and  _325
REMARK  130  A    between atoms: _325  and  _326
REMARK  131  A    between atoms: _325  and  _328
REMARK  132  A    between atoms: _328  and  _329
REMARK  133  A    between atoms: _334  and  _335
REMARK  134  A    between atoms: _337  and  _339
REMARK  135  A    between atoms: _339  and  _340
REMARK  136  A    between atoms: _339  and  _342
REMARK  137  A    between atoms: _342  and  _343
REMARK  138  A    between atoms: _348  and  _350
REMARK  139  A    between atoms: _350  and  _351
REMARK  140  A    between atoms: _350  and  _353
REMARK  141  A    between atoms: _353  and  _354
REMARK  142  A    between atoms: _356  and  _358
REMARK  143  A    between atoms: _358  and  _359
REMARK  144  A    between atoms: _358  and  _361
REMARK  145  A    between atoms: _361  and  _362
REMARK  146  A    between atoms: _365  and  _367
REMARK  147  A    between atoms: _367  and  _368
REMARK  148  A    between atoms: _367  and  _370
REMARK  149  A    between atoms: _370  and  _371
REMARK  150  A    between atoms: _376  and  _378
REMARK  151  A    between atoms: _378  and  _379
REMARK  152  A    between atoms: _378  and  _381
REMARK  153  A    between atoms: _381  and  _382
REMARK  154  A    between atoms: _392  and  _394
REMARK  155  A    between atoms: _394  and  _395
REMARK  156  A    between atoms: _394  and  _397
REMARK  157  A    between atoms: _397  and  _398
REMARK  158  A    between atoms: _404  and  _406
REMARK  159  A    between atoms: _406  and  _407
REMARK  160  A    between atoms: _406  and  _409
REMARK  161  A    between atoms: _409  and  _410
REMARK  162  A    between atoms: _413  and  _415
REMARK  163  A    between atoms: _415  and  _416
REMARK  164  A    between atoms: _415  and  _418
REMARK  165  A    between atoms: _418  and  _419
REMARK  166  A    between atoms: _419  and  _420
REMARK  167  A    between atoms: _420  and  _421
REMARK  168  A    between atoms: _430  and  _432
REMARK  169  A    between atoms: _432  and  _433
REMARK  170  A    between atoms: _432  and  _435
REMARK  171  A    between atoms: _435  and  _436
REMARK  172  A    between atoms: _441  and  _443
REMARK  173  A    between atoms: _443  and  _444
REMARK  174  A    between atoms: _443  and  _446
REMARK  175  A    between atoms: _446  and  _447
REMARK  176  A    between atoms: _447  and  _448
REMARK  177  A    between atoms: _448  and  _449
REMARK  178  A    between atoms: _458  and  _460
REMARK  179  A    between atoms: _460  and  _461
REMARK  180  A    between atoms: _464  and  _466
REMARK  181  A    between atoms: _466  and  _467
REMARK  182  A    between atoms: _469  and  _471
REMARK  183  A    between atoms: _471  and  _472
REMARK  184  A    between atoms: _471  and  _474
REMARK  185  A    between atoms: _474  and  _475
REMARK  186  A    between atoms: _485  and  _487
REMARK  187  A    between atoms: _487  and  _488
REMARK  188  A    between atoms: _487  and  _490
REMARK  189  A    between atoms: _490  and  _491
REMARK  190  A    between atoms: _492  and  _494
REMARK  191  A    between atoms: _494  and  _495
REMARK  192  A    between atoms: _498  and  _500
REMARK  193  A    between atoms: _500  and  _501
REMARK  194  A    between atoms: _500  and  _503
REMARK  195  A    between atoms: _503  and  _504
REMARK  196  A    between atoms: _507  and  _509
REMARK  197  A    between atoms: _509  and  _510
REMARK  198  A    between atoms: _509  and  _512
REMARK  199  A    between atoms: _512  and  _513
REMARK  200  A    between atoms: _518  and  _519
REMARK  201  A    between atoms: _521  and  _523
REMARK  202  A    between atoms: _523  and  _524
REMARK  203  A    between atoms: _523  and  _526
REMARK  204  A    between atoms: _526  and  _527
REMARK  205  A    between atoms: _529  and  _531
REMARK  206  A    between atoms: _531  and  _532
REMARK  207  A    between atoms: _531  and  _534
REMARK  208  A    between atoms: _534  and  _535
REMARK  209  A    between atoms: _541  and  _543
REMARK  210  A    between atoms: _543  and  _544
REMARK  211  A    between atoms: _543  and  _546
REMARK  212  A    between atoms: _546  and  _547
REMARK  213  A    between atoms: _550  and  _552
REMARK  214  A    between atoms: _552  and  _553
REMARK  215  A    between atoms: _552  and  _555
REMARK  216  A    between atoms: _555  and  _556
REMARK  217  A    between atoms: _556  and  _557
REMARK  218  A    between atoms: _559  and  _561
REMARK  219  A    between atoms: _561  and  _562
REMARK  220  A    between atoms: _561  and  _564
REMARK  221  A    between atoms: _564  and  _565
REMARK  222  A    between atoms: _567  and  _569
REMARK  223  A    between atoms: _569  and  _570
REMARK  224  A    between atoms: _569  and  _572
REMARK  225  A    between atoms: _572  and  _573
REMARK  226  A    between atoms: _575  and  _577
REMARK  227  A    between atoms: _577  and  _578
REMARK  228  A    between atoms: _577  and  _580
REMARK  229  A    between atoms: _580  and  _581
REMARK  230  A    between atoms: _586  and  _588
REMARK  231  A    between atoms: _588  and  _589
REMARK  232  A    between atoms: _588  and  _591
REMARK  233  A    between atoms: _591  and  _592
REMARK  234  A    between atoms: _597  and  _599
REMARK  235  A    between atoms: _599  and  _600
REMARK  236  A    between atoms: _599  and  _602
REMARK  237  A    between atoms: _602  and  _603
REMARK  238  A    between atoms: _606  and  _608
REMARK  239  A    between atoms: _608  and  _609
REMARK  240  A    between atoms: _612  and  _614
REMARK  241  A    between atoms: _614  and  _615
REMARK  242  A    between atoms: _614  and  _617
REMARK  243  A    between atoms: _617  and  _618
REMARK  244  A    between atoms: _623  and  _625
REMARK  245  A    between atoms: _625  and  _626
REMARK  246  A    between atoms: _625  and  _628
REMARK  247  A    between atoms: _628  and  _629
REMARK  248  A    between atoms: _632  and  _634
REMARK  249  A    between atoms: _634  and  _635
REMARK  250  A    between atoms: _634  and  _637
REMARK  251  A    between atoms: _637  and  _638
REMARK  252  A    between atoms: _643  and  _644
REMARK  253  A    between atoms: _646  and  _648
REMARK  254  A    between atoms: _648  and  _649
REMARK  255  A    between atoms: _648  and  _651
REMARK  256  A    between atoms: _651  and  _652
REMARK  257  A    between atoms: _657  and  _658
REMARK  258  A    between atoms: _660  and  _662
REMARK  259  A    between atoms: _662  and  _663
REMARK  260  A    between atoms: _662  and  _665
REMARK  261  A    between atoms: _668  and  _670
REMARK  262  A    between atoms: _670  and  _671
REMARK  263  A    between atoms: _670  and  _673
REMARK  264  A    between atoms: _673  and  _674
REMARK  265  A    between atoms: _679  and  _681
REMARK  266  A    between atoms: _681  and  _682
REMARK  267  A    between atoms: _685  and  _687
REMARK  268  A    between atoms: _687  and  _688
REMARK  269  A    between atoms: _687  and  _690
REMARK  270  A    between atoms: _690  and  _691
REMARK  271  A    between atoms: _691  and  _692
REMARK  272  A    between atoms: _692  and  _693
REMARK  273  A    between atoms: _702  and  _704
REMARK  274  A    between atoms: _704  and  _705
REMARK  275  A    between atoms: _704  and  _707
REMARK  276  A    between atoms: _707  and  _708
REMARK  277  A    between atoms: _711  and  _713
REMARK  278  A    between atoms: _713  and  _714
REMARK  279  A    between atoms: _713  and  _716
REMARK  280  A    between atoms: _716  and  _717
REMARK  281  A    between atoms: _720  and  _722
REMARK  282  A    between atoms: _722  and  _723
REMARK  283  A    between atoms: _722  and  _725
REMARK  284  A    between atoms: _725  and  _726
REMARK                            x       y       z     vdW  Elec       q    Type
REMARK                         _______ _______ _______ _____ _____    ______ ____
ROOT
ATOM      1  O   HOH     1       1.666  14.486  11.238  0.00  0.00    +0.000 OA
ENDROOT
TORSDOF 0
REMARK  Name = ../refined-set-2016/1b0h/1b0h_pocket.pdb
REMARK  284 active torsions:
REMARK  status: ('A' for Active; 'I' for Inactive)
REMARK    1  A    between atoms: _1  and  _3
REMARK    2  A    between atoms: _3  and  _4
REMARK    3  A    between atoms: _3  and  _6
REMARK    4  A    between atoms: _6  and  _7
REMARK    5  A    between atoms: _12  and  _14
REMARK    6  A    between atoms: _14  and  _15
REMARK    7  A    between atoms: _17  and  _19
REMARK    8  A    between atoms: _19  and  _20
REMARK    9  A    between atoms: _19  and  _22
REMARK   10  A    between atoms: _22  and  _23
REMARK   11  A    between atoms: _25  and  _27
REMARK   12  A    between atoms: _27  and  _28
REMARK   13  A    between atoms: _27  and  _30
REMARK   14  A    between atoms: _30  and  _31
REMARK   15  A    between atoms: _31  and  _32
REMARK   16  A    between atoms: _37  and  _39
REMARK   17  A    between atoms: _39  and  _40
REMARK   18  A    between atoms: _39  and  _42
REMARK   19  A    between atoms: _42  and  _43
REMARK   20  A    between atoms: _46  and  _48
REMARK   21  A    between atoms: _48  and  _49
REMARK   22  A    between atoms: _48  and  _51
REMARK   23  A    between atoms: _51  and  _52
REMARK   24  A    between atoms: _52  and  _53
REMARK   25  A    between atoms: _56  and  _58
REMARK   26  A    between atoms: _58  and  _59
REMARK   27  A    between atoms: _61  and  _63
REMARK   28  A    between atoms: _63  and  _64
REMARK   29  A    between atoms: _63  and  _66
REMARK   30  A    between atoms: _70  and  _71
REMARK   31  A    between atoms: _76  and  _78
REMARK   32  A    between atoms: _78  and  _79
REMARK   33  A    between atoms: _78  and  _81
REMARK   34  A    between atoms: _81  and  _82
REMARK   35  A    between atoms: _82  and  _83
REMARK   36  A    between atoms: _86  and  _88
REMARK   37  A    between atoms: _88  and  _89
REMARK   38  A    between atoms: _88  and  _91
REMARK   39  A    between atoms: _91  and  _92
REMARK   40  A    between atoms: _94  and  _96
REMARK   41  A    between atoms: _96  and  _97
REMARK   42  A    between atoms: _96  and  _99
REMARK   43  A    between atoms: _99  and  _100
REMARK   44  A    between atoms: _105  and  _107
REMARK   45  A    between atoms: _107  and  _108
REMARK   46  A    between atoms: _107  and  _110
REMARK   47  A    between atoms: _110  and  _111
REMARK   48  A    between atoms: _111  and  _112
REMARK   49  A    between atoms: _112  and  _113
REMARK   50  A    between atoms: _123  and  _124
REMARK   51  A    between atoms: _129  and  _131
REMARK   52  A    between atoms: _131  and  _132
REMARK   53  A    between atoms: _131  and  _134
REMARK   54  A    between atoms: _134  and  _135
REMARK   55  A    between atoms: _140  and  _141
REMARK   56  A    between atoms: _143  and  _145
REMARK   57  A    between atoms: _145  and  _146
REMARK   58  A    between atoms: _145  and  _148
REMARK   59  A    between atoms: _148  and  _149
REMARK   60  A    between atoms: _154  and  _155
REMARK   61  A    between atoms: _157  and  _159
REMARK   62  A    between atoms: _159  and  _160
REMARK   63  A    between atoms: _159  and  _162
REMARK   64  A    between atoms: _165  and  _167
REMARK   65  A    between atoms: _167  and  _168
REMARK   66  A    between atoms: _167  and  _170
REMARK   67  A    between atoms: _170  and  _171
REMARK   68  A    between atoms: _177  and  _178
REMARK   69  A    between atoms: _183  and  _185
REMARK   70  A    between atoms: _185  and  _186
REMARK   71  A    between atoms: _185  and  _188
REMARK   72  A    between atoms: _188  and  _189
REMARK   73  A    between atoms: _191  and  _193
REMARK   74  A    between atoms: _193  and  _194
REMARK   75  A    between atoms: _193  and  _196
REMARK   76  A    between atoms: _196  and  _197
REMARK   77  A    between atoms: _197  and  _198
REMARK   78  A    between atoms: _201  and  _203
REMARK   79  A    between atoms: _203  and  _204
REMARK   80  A    between atoms: _203  and  _206
REMARK   81  A    between atoms: _206  and  _207
REMARK   82  A    between atoms: _212  and  _213
REMARK   83  A    between atoms: _215  and  _217
REMARK   84  A    between atoms: _217  and  _218
REMARK   85  A    between atoms: _217  and  _220
REMARK   86  A    between atoms: _220  and  _221
REMARK   87  A    between atoms: _226  and  _228
REMARK   88  A    between atoms: _228  and  _229
REMARK   89  A    between atoms: _228  and  _231
REMARK   90  A    between atoms: _231  and  _232
REMARK   91  A    between atoms: _237  and  _239
REMARK   92  A    between atoms: _239  and  _240
REMARK   93  A    between atoms: _239  and  _242
REMARK   94  A    between atoms: _242  and  _243
REMARK   95  A    between atoms: _243  and  _244
REMARK   96  A    between atoms: _246  and  _248
REMARK   97  A    between atoms: _248  and  _249
REMARK   98  A    between atoms: _248  and  _251
REMARK   99  A    between atoms: _251  and  _252
REMARK  100  A    between atoms: _257  and  _258
REMARK  101  A    between atoms: _260  and  _262
REMARK  102  A    between atoms: _262  and  _263
REMARK  103  A    between atoms: _262  and  _265
REMARK  104  A    between atoms: _265  and  _266
REMARK  105  A    between atoms: _269  and  _271
REMARK  106  A    between atoms: _271  and  _272
REMARK  107  A    between atoms: _271  and  _274
REMARK  108  A    between atoms: _274  and  _275
REMARK  109  A    between atoms: _275  and  _491
REMARK  110  A    between atoms: _276  and  _278
REMARK  111  A    between atoms: _278  and  _279
REMARK  112  A    between atoms: _278  and  _281
REMARK  113  A    between atoms: _281  and  _282
REMARK  114  A    between atoms: _285  and  _287
REMARK  115  A    between atoms: _287  and  _288
REMARK  116  A    between atoms: _287  and  _290
REMARK  117  A    between atoms: _290  and  _291
REMARK  118  A    between atoms: _296  and  _297
REMARK  119  A    between atoms: _299  and  _301
REMARK  120  A    between atoms: _301  and  _302
REMARK  121  A    between atoms: _301  and  _304
REMARK  122  A    between atoms: _304  and  _305
REMARK  123  A    between atoms: _310  and  _311
REMARK  124  A    between atoms: _313  and  _315
REMARK  125  A    between atoms: _315  and  _316
REMARK  126  A    between atoms: _315  and  _318
REMARK  127  A    between atoms: _318  and  _319
REMARK  128  A    between atoms: _319  and  _320
REMARK  129  A    between atoms: _323  and  _325
REMARK  130  A    between atoms: _325  and  _326
REMARK  131  A    between atoms: _325  and  _328
REMARK  132  A    between atoms: _328  and  _329
REMARK  133  A    between atoms: _334  and  _335
REMARK  134  A    between atoms: _337  and  _339
REMARK  135  A    between atoms: _339  and  _340
REMARK  136  A    between atoms: _339  and  _342
REMARK  137  A    between atoms: _342  and  _343
REMARK  138  A    between atoms: _348  and  _350
REMARK  139  A    between atoms: _350  and  _351
REMARK  140  A    between atoms: _350  and  _353
REMARK  141  A    between atoms: _353  and  _354
REMARK  142  A    between atoms: _356  and  _358
REMARK  143  A    between atoms: _358  and  _359
REMARK  144  A    between atoms: _358  and  _361
REMARK  145  A    between atoms: _361  and  _362
REMARK  146  A    between atoms: _365  and  _367
REMARK  147  A    between atoms: _367  and  _368
REMARK  148  A    between atoms: _367  and  _370
REMARK  149  A    between atoms: _370  and  _371
REMARK  150  A    between atoms: _376  and  _378
REMARK  151  A    between atoms: _378  and  _379
REMARK  152  A    between atoms: _378  and  _381
REMARK  153  A    between atoms: _381  and  _382
REMARK  154  A    between atoms: _392  and  _394
REMARK  155  A    between atoms: _394  and  _395
REMARK  156  A    between atoms: _394  and  _397
REMARK  157  A    between atoms: _397  and  _398
REMARK  158  A    between atoms: _404  and  _406
REMARK  159  A    between atoms: _406  and  _407
REMARK  160  A    between atoms: _406  and  _409
REMARK  161  A    between atoms: _409  and  _410
REMARK  162  A    between atoms: _413  and  _415
REMARK  163  A    between atoms: _415  and  _416
REMARK  164  A    between atoms: _415  and  _418
REMARK  165  A    between atoms: _418  and  _419
REMARK  166  A    between atoms: _419  and  _420
REMARK  167  A    between atoms: _420  and  _421
REMARK  168  A    between atoms: _430  and  _432
REMARK  169  A    between atoms: _432  and  _433
REMARK  170  A    between atoms: _432  and  _435
REMARK  171  A    between atoms: _435  and  _436
REMARK  172  A    between atoms: _441  and  _443
REMARK  173  A    between atoms: _443  and  _444
REMARK  174  A    between atoms: _443  and  _446
REMARK  175  A    between atoms: _446  and  _447
REMARK  176  A    between atoms: _447  and  _448
REMARK  177  A    between atoms: _448  and  _449
REMARK  178  A    between atoms: _458  and  _460
REMARK  179  A    between atoms: _460  and  _461
REMARK  180  A    between atoms: _464  and  _466
REMARK  181  A    between atoms: _466  and  _467
REMARK  182  A    between atoms: _469  and  _471
REMARK  183  A    between atoms: _471  and  _472
REMARK  184  A    between atoms: _471  and  _474
REMARK  185  A    between atoms: _474  and  _475
REMARK  186  A    between atoms: _485  and  _487
REMARK  187  A    between atoms: _487  and  _488
REMARK  188  A    between atoms: _487  and  _490
REMARK  189  A    between atoms: _490  and  _491
REMARK  190  A    between atoms: _492  and  _494
REMARK  191  A    between atoms: _494  and  _495
REMARK  192  A    between atoms: _498  and  _500
REMARK  193  A    between atoms: _500  and  _501
REMARK  194  A    between atoms: _500  and  _503
REMARK  195  A    between atoms: _503  and  _504
REMARK  196  A    between atoms: _507  and  _509
REMARK  197  A    between atoms: _509  and  _510
REMARK  198  A    between atoms: _509  and  _512
REMARK  199  A    between atoms: _512  and  _513
REMARK  200  A    between atoms: _518  and  _519
REMARK  201  A    between atoms: _521  and  _523
REMARK  202  A    between atoms: _523  and  _524
REMARK  203  A    between atoms: _523  and  _526
REMARK  204  A    between atoms: _526  and  _527
REMARK  205  A    between atoms: _529  and  _531
REMARK  206  A    between atoms: _531  and  _532
REMARK  207  A    between atoms: _531  and  _534
REMARK  208  A    between atoms: _534  and  _535
REMARK  209  A    between atoms: _541  and  _543
REMARK  210  A    between atoms: _543  and  _544
REMARK  211  A    between atoms: _543  and  _546
REMARK  212  A    between atoms: _546  and  _547
REMARK  213  A    between atoms: _550  and  _552
REMARK  214  A    between atoms: _552  and  _553
REMARK  215  A    between atoms: _552  and  _555
REMARK  216  A    between atoms: _555  and  _556
REMARK  217  A    between atoms: _556  and  _557
REMARK  218  A    between atoms: _559  and  _561
REMARK  219  A    between atoms: _561  and  _562
REMARK  220  A    between atoms: _561  and  _564
REMARK  221  A    between atoms: _564  and  _565
REMARK  222  A    between atoms: _567  and  _569
REMARK  223  A    between atoms: _569  and  _570
REMARK  224  A    between atoms: _569  and  _572
REMARK  225  A    between atoms: _572  and  _573
REMARK  226  A    between atoms: _575  and  _577
REMARK  227  A    between atoms: _577  and  _578
REMARK  228  A    between atoms: _577  and  _580
REMARK  229  A    between atoms: _580  and  _581
REMARK  230  A    between atoms: _586  and  _588
REMARK  231  A    between atoms: _588  and  _589
REMARK  232  A    between atoms: _588  and  _591
REMARK  233  A    between atoms: _591  and  _592
REMARK  234  A    between atoms: _597  and  _599
REMARK  235  A    between atoms: _599  and  _600
REMARK  236  A    between atoms: _599  and  _602
REMARK  237  A    between atoms: _602  and  _603
REMARK  238  A    between atoms: _606  and  _608
REMARK  239  A    between atoms: _608  and  _609
REMARK  240  A    between atoms: _612  and  _614
REMARK  241  A    between atoms: _614  and  _615
REMARK  242  A    between atoms: _614  and  _617
REMARK  243  A    between atoms: _617  and  _618
REMARK  244  A    between atoms: _623  and  _625
REMARK  245  A    between atoms: _625  and  _626
REMARK  246  A    between atoms: _625  and  _628
REMARK  247  A    between atoms: _628  and  _629
REMARK  248  A    between atoms: _632  and  _634
REMARK  249  A    between atoms: _634  and  _635
REMARK  250  A    between atoms: _634  and  _637
REMARK  251  A    between atoms: _637  and  _638
REMARK  252  A    between atoms: _643  and  _644
REMARK  253  A    between atoms: _646  and  _648
REMARK  254  A    between atoms: _648  and  _649
REMARK  255  A    between atoms: _648  and  _651
REMARK  256  A    between atoms: _651  and  _652
REMARK  257  A    between atoms: _657  and  _658
REMARK  258  A    between atoms: _660  and  _662
REMARK  259  A    between atoms: _662  and  _663
REMARK  260  A    between atoms: _662  and  _665
REMARK  261  A    between atoms: _668  and  _670
REMARK  262  A    between atoms: _670  and  _671
REMARK  263  A    between atoms: _670  and  _673
REMARK  264  A    between atoms: _673  and  _674
REMARK  265  A    between atoms: _679  and  _681
REMARK  266  A    between atoms: _681  and  _682
REMARK  267  A    between atoms: _685  and  _687
REMARK  268  A    between atoms: _687  and  _688
REMARK  269  A    between atoms: _687  and  _690
REMARK  270  A    between atoms: _690  and  _691
REMARK  271  A    between atoms: _691  and  _692
REMARK  272  A    between atoms: _692  and  _693
REMARK  273  A    between atoms: _702  and  _704
REMARK  274  A    between atoms: _704  and  _705
REMARK  275  A    between atoms: _704  and  _707
REMARK  276  A    between atoms: _707  and  _708
REMARK  277  A    between atoms: _711  and  _713
REMARK  278  A    between atoms: _713  and  _714
REMARK  279  A    between atoms: _713  and  _716
REMARK  280  A    between atoms: _716  and  _717
REMARK  281  A    between atoms: _720  and  _722
REMARK  282  A    between atoms: _722  and  _723
REMARK  283  A    between atoms: _722  and  _725
REMARK  284  A    between atoms: _725  and  _726
REMARK                            x       y       z     vdW  Elec       q    Type
REMARK                         _______ _______ _______ _____ _____    ______ ____
ROOT
ATOM      1  O   HOH     1      -0.554  14.767   8.809  0.00  0.00    +0.000 OA
ENDROOT
TORSDOF 0
REMARK  Name = ../refined-set-2016/1b0h/1b0h_pocket.pdb
REMARK  284 active torsions:
REMARK  status: ('A' for Active; 'I' for Inactive)
REMARK    1  A    between atoms: _1  and  _3
REMARK    2  A    between atoms: _3  and  _4
REMARK    3  A    between atoms: _3  and  _6
REMARK    4  A    between atoms: _6  and  _7
REMARK    5  A    between atoms: _12  and  _14
REMARK    6  A    between atoms: _14  and  _15
REMARK    7  A    between atoms: _17  and  _19
REMARK    8  A    between atoms: _19  and  _20
REMARK    9  A    between atoms: _19  and  _22
REMARK   10  A    between atoms: _22  and  _23
REMARK   11  A    between atoms: _25  and  _27
REMARK   12  A    between atoms: _27  and  _28
REMARK   13  A    between atoms: _27  and  _30
REMARK   14  A    between atoms: _30  and  _31
REMARK   15  A    between atoms: _31  and  _32
REMARK   16  A    between atoms: _37  and  _39
REMARK   17  A    between atoms: _39  and  _40
REMARK   18  A    between atoms: _39  and  _42
REMARK   19  A    between atoms: _42  and  _43
REMARK   20  A    between atoms: _46  and  _48
REMARK   21  A    between atoms: _48  and  _49
REMARK   22  A    between atoms: _48  and  _51
REMARK   23  A    between atoms: _51  and  _52
REMARK   24  A    between atoms: _52  and  _53
REMARK   25  A    between atoms: _56  and  _58
REMARK   26  A    between atoms: _58  and  _59
REMARK   27  A    between atoms: _61  and  _63
REMARK   28  A    between atoms: _63  and  _64
REMARK   29  A    between atoms: _63  and  _66
REMARK   30  A    between atoms: _70  and  _71
REMARK   31  A    between atoms: _76  and  _78
REMARK   32  A    between atoms: _78  and  _79
REMARK   33  A    between atoms: _78  and  _81
REMARK   34  A    between atoms: _81  and  _82
REMARK   35  A    between atoms: _82  and  _83
REMARK   36  A    between atoms: _86  and  _88
REMARK   37  A    between atoms: _88  and  _89
REMARK   38  A    between atoms: _88  and  _91
REMARK   39  A    between atoms: _91  and  _92
REMARK   40  A    between atoms: _94  and  _96
REMARK   41  A    between atoms: _96  and  _97
REMARK   42  A    between atoms: _96  and  _99
REMARK   43  A    between atoms: _99  and  _100
REMARK   44  A    between atoms: _105  and  _107
REMARK   45  A    between atoms: _107  and  _108
REMARK   46  A    between atoms: _107  and  _110
REMARK   47  A    between atoms: _110  and  _111
REMARK   48  A    between atoms: _111  and  _112
REMARK   49  A    between atoms: _112  and  _113
REMARK   50  A    between atoms: _123  and  _124
REMARK   51  A    between atoms: _129  and  _131
REMARK   52  A    between atoms: _131  and  _132
REMARK   53  A    between atoms: _131  and  _134
REMARK   54  A    between atoms: _134  and  _135
REMARK   55  A    between atoms: _140  and  _141
REMARK   56  A    between atoms: _143  and  _145
REMARK   57  A    between atoms: _145  and  _146
REMARK   58  A    between atoms: _145  and  _148
REMARK   59  A    between atoms: _148  and  _149
REMARK   60  A    between atoms: _154  and  _155
REMARK   61  A    between atoms: _157  and  _159
REMARK   62  A    between atoms: _159  and  _160
REMARK   63  A    between atoms: _159  and  _162
REMARK   64  A    between atoms: _165  and  _167
REMARK   65  A    between atoms: _167  and  _168
REMARK   66  A    between atoms: _167  and  _170
REMARK   67  A    between atoms: _170  and  _171
REMARK   68  A    between atoms: _177  and  _178
REMARK   69  A    between atoms: _183  and  _185
REMARK   70  A    between atoms: _185  and  _186
REMARK   71  A    between atoms: _185  and  _188
REMARK   72  A    between atoms: _188  and  _189
REMARK   73  A    between atoms: _191  and  _193
REMARK   74  A    between atoms: _193  and  _194
REMARK   75  A    between atoms: _193  and  _196
REMARK   76  A    between atoms: _196  and  _197
REMARK   77  A    between atoms: _197  and  _198
REMARK   78  A    between atoms: _201  and  _203
REMARK   79  A    between atoms: _203  and  _204
REMARK   80  A    between atoms: _203  and  _206
REMARK   81  A    between atoms: _206  and  _207
REMARK   82  A    between atoms: _212  and  _213
REMARK   83  A    between atoms: _215  and  _217
REMARK   84  A    between atoms: _217  and  _218
REMARK   85  A    between atoms: _217  and  _220
REMARK   86  A    between atoms: _220  and  _221
REMARK   87  A    between atoms: _226  and  _228
REMARK   88  A    between atoms: _228  and  _229
REMARK   89  A    between atoms: _228  and  _231
REMARK   90  A    between atoms: _231  and  _232
REMARK   91  A    between atoms: _237  and  _239
REMARK   92  A    between atoms: _239  and  _240
REMARK   93  A    between atoms: _239  and  _242
REMARK   94  A    between atoms: _242  and  _243
REMARK   95  A    between atoms: _243  and  _244
REMARK   96  A    between atoms: _246  and  _248
REMARK   97  A    between atoms: _248  and  _249
REMARK   98  A    between atoms: _248  and  _251
REMARK   99  A    between atoms: _251  and  _252
REMARK  100  A    between atoms: _257  and  _258
REMARK  101  A    between atoms: _260  and  _262
REMARK  102  A    between atoms: _262  and  _263
REMARK  103  A    between atoms: _262  and  _265
REMARK  104  A    between atoms: _265  and  _266
REMARK  105  A    between atoms: _269  and  _271
REMARK  106  A    between atoms: _271  and  _272
REMARK  107  A    between atoms: _271  and  _274
REMARK  108  A    between atoms: _274  and  _275
REMARK  109  A    between atoms: _275  and  _491
REMARK  110  A    between atoms: _276  and  _278
REMARK  111  A    between atoms: _278  and  _279
REMARK  112  A    between atoms: _278  and  _281
REMARK  113  A    between atoms: _281  and  _282
REMARK  114  A    between atoms: _285  and  _287
REMARK  115  A    between atoms: _287  and  _288
REMARK  116  A    between atoms: _287  and  _290
REMARK  117  A    between atoms: _290  and  _291
REMARK  118  A    between atoms: _296  and  _297
REMARK  119  A    between atoms: _299  and  _301
REMARK  120  A    between atoms: _301  and  _302
REMARK  121  A    between atoms: _301  and  _304
REMARK  122  A    between atoms: _304  and  _305
REMARK  123  A    between atoms: _310  and  _311
REMARK  124  A    between atoms: _313  and  _315
REMARK  125  A    between atoms: _315  and  _316
REMARK  126  A    between atoms: _315  and  _318
REMARK  127  A    between atoms: _318  and  _319
REMARK  128  A    between atoms: _319  and  _320
REMARK  129  A    between atoms: _323  and  _325
REMARK  130  A    between atoms: _325  and  _326
REMARK  131  A    between atoms: _325  and  _328
REMARK  132  A    between atoms: _328  and  _329
REMARK  133  A    between atoms: _334  and  _335
REMARK  134  A    between atoms: _337  and  _339
REMARK  135  A    between atoms: _339  and  _340
REMARK  136  A    between atoms: _339  and  _342
REMARK  137  A    between atoms: _342  and  _343
REMARK  138  A    between atoms: _348  and  _350
REMARK  139  A    between atoms: _350  and  _351
REMARK  140  A    between atoms: _350  and  _353
REMARK  141  A    between atoms: _353  and  _354
REMARK  142  A    between atoms: _356  and  _358
REMARK  143  A    between atoms: _358  and  _359
REMARK  144  A    between atoms: _358  and  _361
REMARK  145  A    between atoms: _361  and  _362
REMARK  146  A    between atoms: _365  and  _367
REMARK  147  A    between atoms: _367  and  _368
REMARK  148  A    between atoms: _367  and  _370
REMARK  149  A    between atoms: _370  and  _371
REMARK  150  A    between atoms: _376  and  _378
REMARK  151  A    between atoms: _378  and  _379
REMARK  152  A    between atoms: _378  and  _381
REMARK  153  A    between atoms: _381  and  _382
REMARK  154  A    between atoms: _392  and  _394
REMARK  155  A    between atoms: _394  and  _395
REMARK  156  A    between atoms: _394  and  _397
REMARK  157  A    between atoms: _397  and  _398
REMARK  158  A    between atoms: _404  and  _406
REMARK  159  A    between atoms: _406  and  _407
REMARK  160  A    between atoms: _406  and  _409
REMARK  161  A    between atoms: _409  and  _410
REMARK  162  A    between atoms: _413  and  _415
REMARK  163  A    between atoms: _415  and  _416
REMARK  164  A    between atoms: _415  and  _418
REMARK  165  A    between atoms: _418  and  _419
REMARK  166  A    between atoms: _419  and  _420
REMARK  167  A    between atoms: _420  and  _421
REMARK  168  A    between atoms: _430  and  _432
REMARK  169  A    between atoms: _432  and  _433
REMARK  170  A    between atoms: _432  and  _435
REMARK  171  A    between atoms: _435  and  _436
REMARK  172  A    between atoms: _441  and  _443
REMARK  173  A    between atoms: _443  and  _444
REMARK  174  A    between atoms: _443  and  _446
REMARK  175  A    between atoms: _446  and  _447
REMARK  176  A    between atoms: _447  and  _448
REMARK  177  A    between atoms: _448  and  _449
REMARK  178  A    between atoms: _458  and  _460
REMARK  179  A    between atoms: _460  and  _461
REMARK  180  A    between atoms: _464  and  _466
REMARK  181  A    between atoms: _466  and  _467
REMARK  182  A    between atoms: _469  and  _471
REMARK  183  A    between atoms: _471  and  _472
REMARK  184  A    between atoms: _471  and  _474
REMARK  185  A    between atoms: _474  and  _475
REMARK  186  A    between atoms: _485  and  _487
REMARK  187  A    between atoms: _487  and  _488
REMARK  188  A    between atoms: _487  and  _490
REMARK  189  A    between atoms: _490  and  _491
REMARK  190  A    between atoms: _492  and  _494
REMARK  191  A    between atoms: _494  and  _495
REMARK  192  A    between atoms: _498  and  _500
REMARK  193  A    between atoms: _500  and  _501
REMARK  194  A    between atoms: _500  and  _503
REMARK  195  A    between atoms: _503  and  _504
REMARK  196  A    between atoms: _507  and  _509
REMARK  197  A    between atoms: _509  and  _510
REMARK  198  A    between atoms: _509  and  _512
REMARK  199  A    between atoms: _512  and  _513
REMARK  200  A    between atoms: _518  and  _519
REMARK  201  A    between atoms: _521  and  _523
REMARK  202  A    between atoms: _523  and  _524
REMARK  203  A    between atoms: _523  and  _526
REMARK  204  A    between atoms: _526  and  _527
REMARK  205  A    between atoms: _529  and  _531
REMARK  206  A    between atoms: _531  and  _532
REMARK  207  A    between atoms: _531  and  _534
REMARK  208  A    between atoms: _534  and  _535
REMARK  209  A    between atoms: _541  and  _543
REMARK  210  A    between atoms: _543  and  _544
REMARK  211  A    between atoms: _543  and  _546
REMARK  212  A    between atoms: _546  and  _547
REMARK  213  A    between atoms: _550  and  _552
REMARK  214  A    between atoms: _552  and  _553
REMARK  215  A    between atoms: _552  and  _555
REMARK  216  A    between atoms: _555  and  _556
REMARK  217  A    between atoms: _556  and  _557
REMARK  218  A    between atoms: _559  and  _561
REMARK  219  A    between atoms: _561  and  _562
REMARK  220  A    between atoms: _561  and  _564
REMARK  221  A    between atoms: _564  and  _565
REMARK  222  A    between atoms: _567  and  _569
REMARK  223  A    between atoms: _569  and  _570
REMARK  224  A    between atoms: _569  and  _572
REMARK  225  A    between atoms: _572  and  _573
REMARK  226  A    between atoms: _575  and  _577
REMARK  227  A    between atoms: _577  and  _578
REMARK  228  A    between atoms: _577  and  _580
REMARK  229  A    between atoms: _580  and  _581
REMARK  230  A    between atoms: _586  and  _588
REMARK  231  A    between atoms: _588  and  _589
REMARK  232  A    between atoms: _588  and  _591
REMARK  233  A    between atoms: _591  and  _592
REMARK  234  A    between atoms: _597  and  _599
REMARK  235  A    between atoms: _599  and  _600
REMARK  236  A    between atoms: _599  and  _602
REMARK  237  A    between atoms: _602  and  _603
REMARK  238  A    between atoms: _606  and  _608
REMARK  239  A    between atoms: _608  and  _609
REMARK  240  A    between atoms: _612  and  _614
REMARK  241  A    between atoms: _614  and  _615
REMARK  242  A    between atoms: _614  and  _617
REMARK  243  A    between atoms: _617  and  _618
REMARK  244  A    between atoms: _623  and  _625
REMARK  245  A    between atoms: _625  and  _626
REMARK  246  A    between atoms: _625  and  _628
REMARK  247  A    between atoms: _628  and  _629
REMARK  248  A    between atoms: _632  and  _634
REMARK  249  A    between atoms: _634  and  _635
REMARK  250  A    between atoms: _634  and  _637
REMARK  251  A    between atoms: _637  and  _638
REMARK  252  A    between atoms: _643  and  _644
REMARK  253  A    between atoms: _646  and  _648
REMARK  254  A    between atoms: _648  and  _649
REMARK  255  A    between atoms: _648  and  _651
REMARK  256  A    between atoms: _651  and  _652
REMARK  257  A    between atoms: _657  and  _658
REMARK  258  A    between atoms: _660  and  _662
REMARK  259  A    between atoms: _662  and  _663
REMARK  260  A    between atoms: _662  and  _665
REMARK  261  A    between atoms: _668  and  _670
REMARK  262  A    between atoms: _670  and  _671
REMARK  263  A    between atoms: _670  and  _673
REMARK  264  A    between atoms: _673  and  _674
REMARK  265  A    between atoms: _679  and  _681
REMARK  266  A    between atoms: _681  and  _682
REMARK  267  A    between atoms: _685  and  _687
REMARK  268  A    between atoms: _687  and  _688
REMARK  269  A    between atoms: _687  and  _690
REMARK  270  A    between atoms: _690  and  _691
REMARK  271  A    between atoms: _691  and  _692
REMARK  272  A    between atoms: _692  and  _693
REMARK  273  A    between atoms: _702  and  _704
REMARK  274  A    between atoms: _704  and  _705
REMARK  275  A    between atoms: _704  and  _707
REMARK  276  A    between atoms: _707  and  _708
REMARK  277  A    between atoms: _711  and  _713
REMARK  278  A    between atoms: _713  and  _714
REMARK  279  A    between atoms: _713  and  _716
REMARK  280  A    between atoms: _716  and  _717
REMARK  281  A    between atoms: _720  and  _722
REMARK  282  A    between atoms: _722  and  _723
REMARK  283  A    between atoms: _722  and  _725
REMARK  284  A    between atoms: _725  and  _726
REMARK                            x       y       z     vdW  Elec       q    Type
REMARK                         _______ _______ _______ _____ _____    ______ ____
ROOT
ATOM      1  O   HOH     1      -5.901  14.500  13.705  0.00  0.00    +0.000 OA
ENDROOT
TORSDOF 0
REMARK  Name = ../refined-set-2016/1b0h/1b0h_pocket.pdb
REMARK  284 active torsions:
REMARK  status: ('A' for Active; 'I' for Inactive)
REMARK    1  A    between atoms: _1  and  _3
REMARK    2  A    between atoms: _3  and  _4
REMARK    3  A    between atoms: _3  and  _6
REMARK    4  A    between atoms: _6  and  _7
REMARK    5  A    between atoms: _12  and  _14
REMARK    6  A    between atoms: _14  and  _15
REMARK    7  A    between atoms: _17  and  _19
REMARK    8  A    between atoms: _19  and  _20
REMARK    9  A    between atoms: _19  and  _22
REMARK   10  A    between atoms: _22  and  _23
REMARK   11  A    between atoms: _25  and  _27
REMARK   12  A    between atoms: _27  and  _28
REMARK   13  A    between atoms: _27  and  _30
REMARK   14  A    between atoms: _30  and  _31
REMARK   15  A    between atoms: _31  and  _32
REMARK   16  A    between atoms: _37  and  _39
REMARK   17  A    between atoms: _39  and  _40
REMARK   18  A    between atoms: _39  and  _42
REMARK   19  A    between atoms: _42  and  _43
REMARK   20  A    between atoms: _46  and  _48
REMARK   21  A    between atoms: _48  and  _49
REMARK   22  A    between atoms: _48  and  _51
REMARK   23  A    between atoms: _51  and  _52
REMARK   24  A    between atoms: _52  and  _53
REMARK   25  A    between atoms: _56  and  _58
REMARK   26  A    between atoms: _58  and  _59
REMARK   27  A    between atoms: _61  and  _63
REMARK   28  A    between atoms: _63  and  _64
REMARK   29  A    between atoms: _63  and  _66
REMARK   30  A    between atoms: _70  and  _71
REMARK   31  A    between atoms: _76  and  _78
REMARK   32  A    between atoms: _78  and  _79
REMARK   33  A    between atoms: _78  and  _81
REMARK   34  A    between atoms: _81  and  _82
REMARK   35  A    between atoms: _82  and  _83
REMARK   36  A    between atoms: _86  and  _88
REMARK   37  A    between atoms: _88  and  _89
REMARK   38  A    between atoms: _88  and  _91
REMARK   39  A    between atoms: _91  and  _92
REMARK   40  A    between atoms: _94  and  _96
REMARK   41  A    between atoms: _96  and  _97
REMARK   42  A    between atoms: _96  and  _99
REMARK   43  A    between atoms: _99  and  _100
REMARK   44  A    between atoms: _105  and  _107
REMARK   45  A    between atoms: _107  and  _108
REMARK   46  A    between atoms: _107  and  _110
REMARK   47  A    between atoms: _110  and  _111
REMARK   48  A    between atoms: _111  and  _112
REMARK   49  A    between atoms: _112  and  _113
REMARK   50  A    between atoms: _123  and  _124
REMARK   51  A    between atoms: _129  and  _131
REMARK   52  A    between atoms: _131  and  _132
REMARK   53  A    between atoms: _131  and  _134
REMARK   54  A    between atoms: _134  and  _135
REMARK   55  A    between atoms: _140  and  _141
REMARK   56  A    between atoms: _143  and  _145
REMARK   57  A    between atoms: _145  and  _146
REMARK   58  A    between atoms: _145  and  _148
REMARK   59  A    between atoms: _148  and  _149
REMARK   60  A    between atoms: _154  and  _155
REMARK   61  A    between atoms: _157  and  _159
REMARK   62  A    between atoms: _159  and  _160
REMARK   63  A    between atoms: _159  and  _162
REMARK   64  A    between atoms: _165  and  _167
REMARK   65  A    between atoms: _167  and  _168
REMARK   66  A    between atoms: _167  and  _170
REMARK   67  A    between atoms: _170  and  _171
REMARK   68  A    between atoms: _177  and  _178
REMARK   69  A    between atoms: _183  and  _185
REMARK   70  A    between atoms: _185  and  _186
REMARK   71  A    between atoms: _185  and  _188
REMARK   72  A    between atoms: _188  and  _189
REMARK   73  A    between atoms: _191  and  _193
REMARK   74  A    between atoms: _193  and  _194
REMARK   75  A    between atoms: _193  and  _196
REMARK   76  A    between atoms: _196  and  _197
REMARK   77  A    between atoms: _197  and  _198
REMARK   78  A    between atoms: _201  and  _203
REMARK   79  A    between atoms: _203  and  _204
REMARK   80  A    between atoms: _203  and  _206
REMARK   81  A    between atoms: _206  and  _207
REMARK   82  A    between atoms: _212  and  _213
REMARK   83  A    between atoms: _215  and  _217
REMARK   84  A    between atoms: _217  and  _218
REMARK   85  A    between atoms: _217  and  _220
REMARK   86  A    between atoms: _220  and  _221
REMARK   87  A    between atoms: _226  and  _228
REMARK   88  A    between atoms: _228  and  _229
REMARK   89  A    between atoms: _228  and  _231
REMARK   90  A    between atoms: _231  and  _232
REMARK   91  A    between atoms: _237  and  _239
REMARK   92  A    between atoms: _239  and  _240
REMARK   93  A    between atoms: _239  and  _242
REMARK   94  A    between atoms: _242  and  _243
REMARK   95  A    between atoms: _243  and  _244
REMARK   96  A    between atoms: _246  and  _248
REMARK   97  A    between atoms: _248  and  _249
REMARK   98  A    between atoms: _248  and  _251
REMARK   99  A    between atoms: _251  and  _252
REMARK  100  A    between atoms: _257  and  _258
REMARK  101  A    between atoms: _260  and  _262
REMARK  102  A    between atoms: _262  and  _263
REMARK  103  A    between atoms: _262  and  _265
REMARK  104  A    between atoms: _265  and  _266
REMARK  105  A    between atoms: _269  and  _271
REMARK  106  A    between atoms: _271  and  _272
REMARK  107  A    between atoms: _271  and  _274
REMARK  108  A    between atoms: _274  and  _275
REMARK  109  A    between atoms: _275  and  _491
REMARK  110  A    between atoms: _276  and  _278
REMARK  111  A    between atoms: _278  and  _279
REMARK  112  A    between atoms: _278  and  _281
REMARK  113  A    between atoms: _281  and  _282
REMARK  114  A    between atoms: _285  and  _287
REMARK  115  A    between atoms: _287  and  _288
REMARK  116  A    between atoms: _287  and  _290
REMARK  117  A    between atoms: _290  and  _291
REMARK  118  A    between atoms: _296  and  _297
REMARK  119  A    between atoms: _299  and  _301
REMARK  120  A    between atoms: _301  and  _302
REMARK  121  A    between atoms: _301  and  _304
REMARK  122  A    between atoms: _304  and  _305
REMARK  123  A    between atoms: _310  and  _311
REMARK  124  A    between atoms: _313  and  _315
REMARK  125  A    between atoms: _315  and  _316
REMARK  126  A    between atoms: _315  and  _318
REMARK  127  A    between atoms: _318  and  _319
REMARK  128  A    between atoms: _319  and  _320
REMARK  129  A    between atoms: _323  and  _325
REMARK  130  A    between atoms: _325  and  _326
REMARK  131  A    between atoms: _325  and  _328
REMARK  132  A    between atoms: _328  and  _329
REMARK  133  A    between atoms: _334  and  _335
REMARK  134  A    between atoms: _337  and  _339
REMARK  135  A    between atoms: _339  and  _340
REMARK  136  A    between atoms: _339  and  _342
REMARK  137  A    between atoms: _342  and  _343
REMARK  138  A    between atoms: _348  and  _350
REMARK  139  A    between atoms: _350  and  _351
REMARK  140  A    between atoms: _350  and  _353
REMARK  141  A    between atoms: _353  and  _354
REMARK  142  A    between atoms: _356  and  _358
REMARK  143  A    between atoms: _358  and  _359
REMARK  144  A    between atoms: _358  and  _361
REMARK  145  A    between atoms: _361  and  _362
REMARK  146  A    between atoms: _365  and  _367
REMARK  147  A    between atoms: _367  and  _368
REMARK  148  A    between atoms: _367  and  _370
REMARK  149  A    between atoms: _370  and  _371
REMARK  150  A    between atoms: _376  and  _378
REMARK  151  A    between atoms: _378  and  _379
REMARK  152  A    between atoms: _378  and  _381
REMARK  153  A    between atoms: _381  and  _382
REMARK  154  A    between atoms: _392  and  _394
REMARK  155  A    between atoms: _394  and  _395
REMARK  156  A    between atoms: _394  and  _397
REMARK  157  A    between atoms: _397  and  _398
REMARK  158  A    between atoms: _404  and  _406
REMARK  159  A    between atoms: _406  and  _407
REMARK  160  A    between atoms: _406  and  _409
REMARK  161  A    between atoms: _409  and  _410
REMARK  162  A    between atoms: _413  and  _415
REMARK  163  A    between atoms: _415  and  _416
REMARK  164  A    between atoms: _415  and  _418
REMARK  165  A    between atoms: _418  and  _419
REMARK  166  A    between atoms: _419  and  _420
REMARK  167  A    between atoms: _420  and  _421
REMARK  168  A    between atoms: _430  and  _432
REMARK  169  A    between atoms: _432  and  _433
REMARK  170  A    between atoms: _432  and  _435
REMARK  171  A    between atoms: _435  and  _436
REMARK  172  A    between atoms: _441  and  _443
REMARK  173  A    between atoms: _443  and  _444
REMARK  174  A    between atoms: _443  and  _446
REMARK  175  A    between atoms: _446  and  _447
REMARK  176  A    between atoms: _447  and  _448
REMARK  177  A    between atoms: _448  and  _449
REMARK  178  A    between atoms: _458  and  _460
REMARK  179  A    between atoms: _460  and  _461
REMARK  180  A    between atoms: _464  and  _466
REMARK  181  A    between atoms: _466  and  _467
REMARK  182  A    between atoms: _469  and  _471
REMARK  183  A    between atoms: _471  and  _472
REMARK  184  A    between atoms: _471  and  _474
REMARK  185  A    between atoms: _474  and  _475
REMARK  186  A    between atoms: _485  and  _487
REMARK  187  A    between atoms: _487  and  _488
REMARK  188  A    between atoms: _487  and  _490
REMARK  189  A    between atoms: _490  and  _491
REMARK  190  A    between atoms: _492  and  _494
REMARK  191  A    between atoms: _494  and  _495
REMARK  192  A    between atoms: _498  and  _500
REMARK  193  A    between atoms: _500  and  _501
REMARK  194  A    between atoms: _500  and  _503
REMARK  195  A    between atoms: _503  and  _504
REMARK  196  A    between atoms: _507  and  _509
REMARK  197  A    between atoms: _509  and  _510
REMARK  198  A    between atoms: _509  and  _512
REMARK  199  A    between atoms: _512  and  _513
REMARK  200  A    between atoms: _518  and  _519
REMARK  201  A    between atoms: _521  and  _523
REMARK  202  A    between atoms: _523  and  _524
REMARK  203  A    between atoms: _523  and  _526
REMARK  204  A    between atoms: _526  and  _527
REMARK  205  A    between atoms: _529  and  _531
REMARK  206  A    between atoms: _531  and  _532
REMARK  207  A    between atoms: _531  and  _534
REMARK  208  A    between atoms: _534  and  _535
REMARK  209  A    between atoms: _541  and  _543
REMARK  210  A    between atoms: _543  and  _544
REMARK  211  A    between atoms: _543  and  _546
REMARK  212  A    between atoms: _546  and  _547
REMARK  213  A    between atoms: _550  and  _552
REMARK  214  A    between atoms: _552  and  _553
REMARK  215  A    between atoms: _552  and  _555
REMARK  216  A    between atoms: _555  and  _556
REMARK  217  A    between atoms: _556  and  _557
REMARK  218  A    between atoms: _559  and  _561
REMARK  219  A    between atoms: _561  and  _562
REMARK  220  A    between atoms: _561  and  _564
REMARK  221  A    between atoms: _564  and  _565
REMARK  222  A    between atoms: _567  and  _569
REMARK  223  A    between atoms: _569  and  _570
REMARK  224  A    between atoms: _569  and  _572
REMARK  225  A    between atoms: _572  and  _573
REMARK  226  A    between atoms: _575  and  _577
REMARK  227  A    between atoms: _577  and  _578
REMARK  228  A    between atoms: _577  and  _580
REMARK  229  A    between atoms: _580  and  _581
REMARK  230  A    between atoms: _586  and  _588
REMARK  231  A    between atoms: _588  and  _589
REMARK  232  A    between atoms: _588  and  _591
REMARK  233  A    between atoms: _591  and  _592
REMARK  234  A    between atoms: _597  and  _599
REMARK  235  A    between atoms: _599  and  _600
REMARK  236  A    between atoms: _599  and  _602
REMARK  237  A    between atoms: _602  and  _603
REMARK  238  A    between atoms: _606  and  _608
REMARK  239  A    between atoms: _608  and  _609
REMARK  240  A    between atoms: _612  and  _614
REMARK  241  A    between atoms: _614  and  _615
REMARK  242  A    between atoms: _614  and  _617
REMARK  243  A    between atoms: _617  and  _618
REMARK  244  A    between atoms: _623  and  _625
REMARK  245  A    between atoms: _625  and  _626
REMARK  246  A    between atoms: _625  and  _628
REMARK  247  A    between atoms: _628  and  _629
REMARK  248  A    between atoms: _632  and  _634
REMARK  249  A    between atoms: _634  and  _635
REMARK  250  A    between atoms: _634  and  _637
REMARK  251  A    between atoms: _637  and  _638
REMARK  252  A    between atoms: _643  and  _644
REMARK  253  A    between atoms: _646  and  _648
REMARK  254  A    between atoms: _648  and  _649
REMARK  255  A    between atoms: _648  and  _651
REMARK  256  A    between atoms: _651  and  _652
REMARK  257  A    between atoms: _657  and  _658
REMARK  258  A    between atoms: _660  and  _662
REMARK  259  A    between atoms: _662  and  _663
REMARK  260  A    between atoms: _662  and  _665
REMARK  261  A    between atoms: _668  and  _670
REMARK  262  A    between atoms: _670  and  _671
REMARK  263  A    between atoms: _670  and  _673
REMARK  264  A    between atoms: _673  and  _674
REMARK  265  A    between atoms: _679  and  _681
REMARK  266  A    between atoms: _681  and  _682
REMARK  267  A    between atoms: _685  and  _687
REMARK  268  A    between atoms: _687  and  _688
REMARK  269  A    between atoms: _687  and  _690
REMARK  270  A    between atoms: _690  and  _691
REMARK  271  A    between atoms: _691  and  _692
REMARK  272  A    between atoms: _692  and  _693
REMARK  273  A    between atoms: _702  and  _704
REMARK  274  A    between atoms: _704  and  _705
REMARK  275  A    between atoms: _704  and  _707
REMARK  276  A    between atoms: _707  and  _708
REMARK  277  A    between atoms: _711  and  _713
REMARK  278  A    between atoms: _713  and  _714
REMARK  279  A    between atoms: _713  and  _716
REMARK  280  A    between atoms: _716  and  _717
REMARK  281  A    between atoms: _720  and  _722
REMARK  282  A    between atoms: _722  and  _723
REMARK  283  A    between atoms: _722  and  _725
REMARK  284  A    between atoms: _725  and  _726
REMARK                            x       y       z     vdW  Elec       q    Type
REMARK                         _______ _______ _______ _____ _____    ______ ____
ROOT
ATOM      1  O   HOH     1       4.663  13.577   9.356  0.00  0.00    +0.000 OA
ENDROOT
TORSDOF 0
REMARK  Name = ../refined-set-2016/1b0h/1b0h_pocket.pdb
REMARK  284 active torsions:
REMARK  status: ('A' for Active; 'I' for Inactive)
REMARK    1  A    between atoms: _1  and  _3
REMARK    2  A    between atoms: _3  and  _4
REMARK    3  A    between atoms: _3  and  _6
REMARK    4  A    between atoms: _6  and  _7
REMARK    5  A    between atoms: _12  and  _14
REMARK    6  A    between atoms: _14  and  _15
REMARK    7  A    between atoms: _17  and  _19
REMARK    8  A    between atoms: _19  and  _20
REMARK    9  A    between atoms: _19  and  _22
REMARK   10  A    between atoms: _22  and  _23
REMARK   11  A    between atoms: _25  and  _27
REMARK   12  A    between atoms: _27  and  _28
REMARK   13  A    between atoms: _27  and  _30
REMARK   14  A    between atoms: _30  and  _31
REMARK   15  A    between atoms: _31  and  _32
REMARK   16  A    between atoms: _37  and  _39
REMARK   17  A    between atoms: _39  and  _40
REMARK   18  A    between atoms: _39  and  _42
REMARK   19  A    between atoms: _42  and  _43
REMARK   20  A    between atoms: _46  and  _48
REMARK   21  A    between atoms: _48  and  _49
REMARK   22  A    between atoms: _48  and  _51
REMARK   23  A    between atoms: _51  and  _52
REMARK   24  A    between atoms: _52  and  _53
REMARK   25  A    between atoms: _56  and  _58
REMARK   26  A    between atoms: _58  and  _59
REMARK   27  A    between atoms: _61  and  _63
REMARK   28  A    between atoms: _63  and  _64
REMARK   29  A    between atoms: _63  and  _66
REMARK   30  A    between atoms: _70  and  _71
REMARK   31  A    between atoms: _76  and  _78
REMARK   32  A    between atoms: _78  and  _79
REMARK   33  A    between atoms: _78  and  _81
REMARK   34  A    between atoms: _81  and  _82
REMARK   35  A    between atoms: _82  and  _83
REMARK   36  A    between atoms: _86  and  _88
REMARK   37  A    between atoms: _88  and  _89
REMARK   38  A    between atoms: _88  and  _91
REMARK   39  A    between atoms: _91  and  _92
REMARK   40  A    between atoms: _94  and  _96
REMARK   41  A    between atoms: _96  and  _97
REMARK   42  A    between atoms: _96  and  _99
REMARK   43  A    between atoms: _99  and  _100
REMARK   44  A    between atoms: _105  and  _107
REMARK   45  A    between atoms: _107  and  _108
REMARK   46  A    between atoms: _107  and  _110
REMARK   47  A    between atoms: _110  and  _111
REMARK   48  A    between atoms: _111  and  _112
REMARK   49  A    between atoms: _112  and  _113
REMARK   50  A    between atoms: _123  and  _124
REMARK   51  A    between atoms: _129  and  _131
REMARK   52  A    between atoms: _131  and  _132
REMARK   53  A    between atoms: _131  and  _134
REMARK   54  A    between atoms: _134  and  _135
REMARK   55  A    between atoms: _140  and  _141
REMARK   56  A    between atoms: _143  and  _145
REMARK   57  A    between atoms: _145  and  _146
REMARK   58  A    between atoms: _145  and  _148
REMARK   59  A    between atoms: _148  and  _149
REMARK   60  A    between atoms: _154  and  _155
REMARK   61  A    between atoms: _157  and  _159
REMARK   62  A    between atoms: _159  and  _160
REMARK   63  A    between atoms: _159  and  _162
REMARK   64  A    between atoms: _165  and  _167
REMARK   65  A    between atoms: _167  and  _168
REMARK   66  A    between atoms: _167  and  _170
REMARK   67  A    between atoms: _170  and  _171
REMARK   68  A    between atoms: _177  and  _178
REMARK   69  A    between atoms: _183  and  _185
REMARK   70  A    between atoms: _185  and  _186
REMARK   71  A    between atoms: _185  and  _188
REMARK   72  A    between atoms: _188  and  _189
REMARK   73  A    between atoms: _191  and  _193
REMARK   74  A    between atoms: _193  and  _194
REMARK   75  A    between atoms: _193  and  _196
REMARK   76  A    between atoms: _196  and  _197
REMARK   77  A    between atoms: _197  and  _198
REMARK   78  A    between atoms: _201  and  _203
REMARK   79  A    between atoms: _203  and  _204
REMARK   80  A    between atoms: _203  and  _206
REMARK   81  A    between atoms: _206  and  _207
REMARK   82  A    between atoms: _212  and  _213
REMARK   83  A    between atoms: _215  and  _217
REMARK   84  A    between atoms: _217  and  _218
REMARK   85  A    between atoms: _217  and  _220
REMARK   86  A    between atoms: _220  and  _221
REMARK   87  A    between atoms: _226  and  _228
REMARK   88  A    between atoms: _228  and  _229
REMARK   89  A    between atoms: _228  and  _231
REMARK   90  A    between atoms: _231  and  _232
REMARK   91  A    between atoms: _237  and  _239
REMARK   92  A    between atoms: _239  and  _240
REMARK   93  A    between atoms: _239  and  _242
REMARK   94  A    between atoms: _242  and  _243
REMARK   95  A    between atoms: _243  and  _244
REMARK   96  A    between atoms: _246  and  _248
REMARK   97  A    between atoms: _248  and  _249
REMARK   98  A    between atoms: _248  and  _251
REMARK   99  A    between atoms: _251  and  _252
REMARK  100  A    between atoms: _257  and  _258
REMARK  101  A    between atoms: _260  and  _262
REMARK  102  A    between atoms: _262  and  _263
REMARK  103  A    between atoms: _262  and  _265
REMARK  104  A    between atoms: _265  and  _266
REMARK  105  A    between atoms: _269  and  _271
REMARK  106  A    between atoms: _271  and  _272
REMARK  107  A    between atoms: _271  and  _274
REMARK  108  A    between atoms: _274  and  _275
REMARK  109  A    between atoms: _275  and  _491
REMARK  110  A    between atoms: _276  and  _278
REMARK  111  A    between atoms: _278  and  _279
REMARK  112  A    between atoms: _278  and  _281
REMARK  113  A    between atoms: _281  and  _282
REMARK  114  A    between atoms: _285  and  _287
REMARK  115  A    between atoms: _287  and  _288
REMARK  116  A    between atoms: _287  and  _290
REMARK  117  A    between atoms: _290  and  _291
REMARK  118  A    between atoms: _296  and  _297
REMARK  119  A    between atoms: _299  and  _301
REMARK  120  A    between atoms: _301  and  _302
REMARK  121  A    between atoms: _301  and  _304
REMARK  122  A    between atoms: _304  and  _305
REMARK  123  A    between atoms: _310  and  _311
REMARK  124  A    between atoms: _313  and  _315
REMARK  125  A    between atoms: _315  and  _316
REMARK  126  A    between atoms: _315  and  _318
REMARK  127  A    between atoms: _318  and  _319
REMARK  128  A    between atoms: _319  and  _320
REMARK  129  A    between atoms: _323  and  _325
REMARK  130  A    between atoms: _325  and  _326
REMARK  131  A    between atoms: _325  and  _328
REMARK  132  A    between atoms: _328  and  _329
REMARK  133  A    between atoms: _334  and  _335
REMARK  134  A    between atoms: _337  and  _339
REMARK  135  A    between atoms: _339  and  _340
REMARK  136  A    between atoms: _339  and  _342
REMARK  137  A    between atoms: _342  and  _343
REMARK  138  A    between atoms: _348  and  _350
REMARK  139  A    between atoms: _350  and  _351
REMARK  140  A    between atoms: _350  and  _353
REMARK  141  A    between atoms: _353  and  _354
REMARK  142  A    between atoms: _356  and  _358
REMARK  143  A    between atoms: _358  and  _359
REMARK  144  A    between atoms: _358  and  _361
REMARK  145  A    between atoms: _361  and  _362
REMARK  146  A    between atoms: _365  and  _367
REMARK  147  A    between atoms: _367  and  _368
REMARK  148  A    between atoms: _367  and  _370
REMARK  149  A    between atoms: _370  and  _371
REMARK  150  A    between atoms: _376  and  _378
REMARK  151  A    between atoms: _378  and  _379
REMARK  152  A    between atoms: _378  and  _381
REMARK  153  A    between atoms: _381  and  _382
REMARK  154  A    between atoms: _392  and  _394
REMARK  155  A    between atoms: _394  and  _395
REMARK  156  A    between atoms: _394  and  _397
REMARK  157  A    between atoms: _397  and  _398
REMARK  158  A    between atoms: _404  and  _406
REMARK  159  A    between atoms: _406  and  _407
REMARK  160  A    between atoms: _406  and  _409
REMARK  161  A    between atoms: _409  and  _410
REMARK  162  A    between atoms: _413  and  _415
REMARK  163  A    between atoms: _415  and  _416
REMARK  164  A    between atoms: _415  and  _418
REMARK  165  A    between atoms: _418  and  _419
REMARK  166  A    between atoms: _419  and  _420
REMARK  167  A    between atoms: _420  and  _421
REMARK  168  A    between atoms: _430  and  _432
REMARK  169  A    between atoms: _432  and  _433
REMARK  170  A    between atoms: _432  and  _435
REMARK  171  A    between atoms: _435  and  _436
REMARK  172  A    between atoms: _441  and  _443
REMARK  173  A    between atoms: _443  and  _444
REMARK  174  A    between atoms: _443  and  _446
REMARK  175  A    between atoms: _446  and  _447
REMARK  176  A    between atoms: _447  and  _448
REMARK  177  A    between atoms: _448  and  _449
REMARK  178  A    between atoms: _458  and  _460
REMARK  179  A    between atoms: _460  and  _461
REMARK  180  A    between atoms: _464  and  _466
REMARK  181  A    between atoms: _466  and  _467
REMARK  182  A    between atoms: _469  and  _471
REMARK  183  A    between atoms: _471  and  _472
REMARK  184  A    between atoms: _471  and  _474
REMARK  185  A    between atoms: _474  and  _475
REMARK  186  A    between atoms: _485  and  _487
REMARK  187  A    between atoms: _487  and  _488
REMARK  188  A    between atoms: _487  and  _490
REMARK  189  A    between atoms: _490  and  _491
REMARK  190  A    between atoms: _492  and  _494
REMARK  191  A    between atoms: _494  and  _495
REMARK  192  A    between atoms: _498  and  _500
REMARK  193  A    between atoms: _500  and  _501
REMARK  194  A    between atoms: _500  and  _503
REMARK  195  A    between atoms: _503  and  _504
REMARK  196  A    between atoms: _507  and  _509
REMARK  197  A    between atoms: _509  and  _510
REMARK  198  A    between atoms: _509  and  _512
REMARK  199  A    between atoms: _512  and  _513
REMARK  200  A    between atoms: _518  and  _519
REMARK  201  A    between atoms: _521  and  _523
REMARK  202  A    between atoms: _523  and  _524
REMARK  203  A    between atoms: _523  and  _526
REMARK  204  A    between atoms: _526  and  _527
REMARK  205  A    between atoms: _529  and  _531
REMARK  206  A    between atoms: _531  and  _532
REMARK  207  A    between atoms: _531  and  _534
REMARK  208  A    between atoms: _534  and  _535
REMARK  209  A    between atoms: _541  and  _543
REMARK  210  A    between atoms: _543  and  _544
REMARK  211  A    between atoms: _543  and  _546
REMARK  212  A    between atoms: _546  and  _547
REMARK  213  A    between atoms: _550  and  _552
REMARK  214  A    between atoms: _552  and  _553
REMARK  215  A    between atoms: _552  and  _555
REMARK  216  A    between atoms: _555  and  _556
REMARK  217  A    between atoms: _556  and  _557
REMARK  218  A    between atoms: _559  and  _561
REMARK  219  A    between atoms: _561  and  _562
REMARK  220  A    between atoms: _561  and  _564
REMARK  221  A    between atoms: _564  and  _565
REMARK  222  A    between atoms: _567  and  _569
REMARK  223  A    between atoms: _569  and  _570
REMARK  224  A    between atoms: _569  and  _572
REMARK  225  A    between atoms: _572  and  _573
REMARK  226  A    between atoms: _575  and  _577
REMARK  227  A    between atoms: _577  and  _578
REMARK  228  A    between atoms: _577  and  _580
REMARK  229  A    between atoms: _580  and  _581
REMARK  230  A    between atoms: _586  and  _588
REMARK  231  A    between atoms: _588  and  _589
REMARK  232  A    between atoms: _588  and  _591
REMARK  233  A    between atoms: _591  and  _592
REMARK  234  A    between atoms: _597  and  _599
REMARK  235  A    between atoms: _599  and  _600
REMARK  236  A    between atoms: _599  and  _602
REMARK  237  A    between atoms: _602  and  _603
REMARK  238  A    between atoms: _606  and  _608
REMARK  239  A    between atoms: _608  and  _609
REMARK  240  A    between atoms: _612  and  _614
REMARK  241  A    between atoms: _614  and  _615
REMARK  242  A    between atoms: _614  and  _617
REMARK  243  A    between atoms: _617  and  _618
REMARK  244  A    between atoms: _623  and  _625
REMARK  245  A    between atoms: _625  and  _626
REMARK  246  A    between atoms: _625  and  _628
REMARK  247  A    between atoms: _628  and  _629
REMARK  248  A    between atoms: _632  and  _634
REMARK  249  A    between atoms: _634  and  _635
REMARK  250  A    between atoms: _634  and  _637
REMARK  251  A    between atoms: _637  and  _638
REMARK  252  A    between atoms: _643  and  _644
REMARK  253  A    between atoms: _646  and  _648
REMARK  254  A    between atoms: _648  and  _649
REMARK  255  A    between atoms: _648  and  _651
REMARK  256  A    between atoms: _651  and  _652
REMARK  257  A    between atoms: _657  and  _658
REMARK  258  A    between atoms: _660  and  _662
REMARK  259  A    between atoms: _662  and  _663
REMARK  260  A    between atoms: _662  and  _665
REMARK  261  A    between atoms: _668  and  _670
REMARK  262  A    between atoms: _670  and  _671
REMARK  263  A    between atoms: _670  and  _673
REMARK  264  A    between atoms: _673  and  _674
REMARK  265  A    between atoms: _679  and  _681
REMARK  266  A    between atoms: _681  and  _682
REMARK  267  A    between atoms: _685  and  _687
REMARK  268  A    between atoms: _687  and  _688
REMARK  269  A    between atoms: _687  and  _690
REMARK  270  A    between atoms: _690  and  _691
REMARK  271  A    between atoms: _691  and  _692
REMARK  272  A    between atoms: _692  and  _693
REMARK  273  A    between atoms: _702  and  _704
REMARK  274  A    between atoms: _704  and  _705
REMARK  275  A    between atoms: _704  and  _707
REMARK  276  A    between atoms: _707  and  _708
REMARK  277  A    between atoms: _711  and  _713
REMARK  278  A    between atoms: _713  and  _714
REMARK  279  A    between atoms: _713  and  _716
REMARK  280  A    between atoms: _716  and  _717
REMARK  281  A    between atoms: _720  and  _722
REMARK  282  A    between atoms: _722  and  _723
REMARK  283  A    between atoms: _722  and  _725
REMARK  284  A    between atoms: _725  and  _726
REMARK                            x       y       z     vdW  Elec       q    Type
REMARK                         _______ _______ _______ _____ _____    ______ ____
ROOT
ATOM      1  O   HOH     1      11.453  26.413  23.760  0.00  0.00    +0.000 OA
ENDROOT
TORSDOF 0
REMARK  Name = ../refined-set-2016/1b0h/1b0h_pocket.pdb
REMARK  284 active torsions:
REMARK  status: ('A' for Active; 'I' for Inactive)
REMARK    1  A    between atoms: _1  and  _3
REMARK    2  A    between atoms: _3  and  _4
REMARK    3  A    between atoms: _3  and  _6
REMARK    4  A    between atoms: _6  and  _7
REMARK    5  A    between atoms: _12  and  _14
REMARK    6  A    between atoms: _14  and  _15
REMARK    7  A    between atoms: _17  and  _19
REMARK    8  A    between atoms: _19  and  _20
REMARK    9  A    between atoms: _19  and  _22
REMARK   10  A    between atoms: _22  and  _23
REMARK   11  A    between atoms: _25  and  _27
REMARK   12  A    between atoms: _27  and  _28
REMARK   13  A    between atoms: _27  and  _30
REMARK   14  A    between atoms: _30  and  _31
REMARK   15  A    between atoms: _31  and  _32
REMARK   16  A    between atoms: _37  and  _39
REMARK   17  A    between atoms: _39  and  _40
REMARK   18  A    between atoms: _39  and  _42
REMARK   19  A    between atoms: _42  and  _43
REMARK   20  A    between atoms: _46  and  _48
REMARK   21  A    between atoms: _48  and  _49
REMARK   22  A    between atoms: _48  and  _51
REMARK   23  A    between atoms: _51  and  _52
REMARK   24  A    between atoms: _52  and  _53
REMARK   25  A    between atoms: _56  and  _58
REMARK   26  A    between atoms: _58  and  _59
REMARK   27  A    between atoms: _61  and  _63
REMARK   28  A    between atoms: _63  and  _64
REMARK   29  A    between atoms: _63  and  _66
REMARK   30  A    between atoms: _70  and  _71
REMARK   31  A    between atoms: _76  and  _78
REMARK   32  A    between atoms: _78  and  _79
REMARK   33  A    between atoms: _78  and  _81
REMARK   34  A    between atoms: _81  and  _82
REMARK   35  A    between atoms: _82  and  _83
REMARK   36  A    between atoms: _86  and  _88
REMARK   37  A    between atoms: _88  and  _89
REMARK   38  A    between atoms: _88  and  _91
REMARK   39  A    between atoms: _91  and  _92
REMARK   40  A    between atoms: _94  and  _96
REMARK   41  A    between atoms: _96  and  _97
REMARK   42  A    between atoms: _96  and  _99
REMARK   43  A    between atoms: _99  and  _100
REMARK   44  A    between atoms: _105  and  _107
REMARK   45  A    between atoms: _107  and  _108
REMARK   46  A    between atoms: _107  and  _110
REMARK   47  A    between atoms: _110  and  _111
REMARK   48  A    between atoms: _111  and  _112
REMARK   49  A    between atoms: _112  and  _113
REMARK   50  A    between atoms: _123  and  _124
REMARK   51  A    between atoms: _129  and  _131
REMARK   52  A    between atoms: _131  and  _132
REMARK   53  A    between atoms: _131  and  _134
REMARK   54  A    between atoms: _134  and  _135
REMARK   55  A    between atoms: _140  and  _141
REMARK   56  A    between atoms: _143  and  _145
REMARK   57  A    between atoms: _145  and  _146
REMARK   58  A    between atoms: _145  and  _148
REMARK   59  A    between atoms: _148  and  _149
REMARK   60  A    between atoms: _154  and  _155
REMARK   61  A    between atoms: _157  and  _159
REMARK   62  A    between atoms: _159  and  _160
REMARK   63  A    between atoms: _159  and  _162
REMARK   64  A    between atoms: _165  and  _167
REMARK   65  A    between atoms: _167  and  _168
REMARK   66  A    between atoms: _167  and  _170
REMARK   67  A    between atoms: _170  and  _171
REMARK   68  A    between atoms: _177  and  _178
REMARK   69  A    between atoms: _183  and  _185
REMARK   70  A    between atoms: _185  and  _186
REMARK   71  A    between atoms: _185  and  _188
REMARK   72  A    between atoms: _188  and  _189
REMARK   73  A    between atoms: _191  and  _193
REMARK   74  A    between atoms: _193  and  _194
REMARK   75  A    between atoms: _193  and  _196
REMARK   76  A    between atoms: _196  and  _197
REMARK   77  A    between atoms: _197  and  _198
REMARK   78  A    between atoms: _201  and  _203
REMARK   79  A    between atoms: _203  and  _204
REMARK   80  A    between atoms: _203  and  _206
REMARK   81  A    between atoms: _206  and  _207
REMARK   82  A    between atoms: _212  and  _213
REMARK   83  A    between atoms: _215  and  _217
REMARK   84  A    between atoms: _217  and  _218
REMARK   85  A    between atoms: _217  and  _220
REMARK   86  A    between atoms: _220  and  _221
REMARK   87  A    between atoms: _226  and  _228
REMARK   88  A    between atoms: _228  and  _229
REMARK   89  A    between atoms: _228  and  _231
REMARK   90  A    between atoms: _231  and  _232
REMARK   91  A    between atoms: _237  and  _239
REMARK   92  A    between atoms: _239  and  _240
REMARK   93  A    between atoms: _239  and  _242
REMARK   94  A    between atoms: _242  and  _243
REMARK   95  A    between atoms: _243  and  _244
REMARK   96  A    between atoms: _246  and  _248
REMARK   97  A    between atoms: _248  and  _249
REMARK   98  A    between atoms: _248  and  _251
REMARK   99  A    between atoms: _251  and  _252
REMARK  100  A    between atoms: _257  and  _258
REMARK  101  A    between atoms: _260  and  _262
REMARK  102  A    between atoms: _262  and  _263
REMARK  103  A    between atoms: _262  and  _265
REMARK  104  A    between atoms: _265  and  _266
REMARK  105  A    between atoms: _269  and  _271
REMARK  106  A    between atoms: _271  and  _272
REMARK  107  A    between atoms: _271  and  _274
REMARK  108  A    between atoms: _274  and  _275
REMARK  109  A    between atoms: _275  and  _491
REMARK  110  A    between atoms: _276  and  _278
REMARK  111  A    between atoms: _278  and  _279
REMARK  112  A    between atoms: _278  and  _281
REMARK  113  A    between atoms: _281  and  _282
REMARK  114  A    between atoms: _285  and  _287
REMARK  115  A    between atoms: _287  and  _288
REMARK  116  A    between atoms: _287  and  _290
REMARK  117  A    between atoms: _290  and  _291
REMARK  118  A    between atoms: _296  and  _297
REMARK  119  A    between atoms: _299  and  _301
REMARK  120  A    between atoms: _301  and  _302
REMARK  121  A    between atoms: _301  and  _304
REMARK  122  A    between atoms: _304  and  _305
REMARK  123  A    between atoms: _310  and  _311
REMARK  124  A    between atoms: _313  and  _315
REMARK  125  A    between atoms: _315  and  _316
REMARK  126  A    between atoms: _315  and  _318
REMARK  127  A    between atoms: _318  and  _319
REMARK  128  A    between atoms: _319  and  _320
REMARK  129  A    between atoms: _323  and  _325
REMARK  130  A    between atoms: _325  and  _326
REMARK  131  A    between atoms: _325  and  _328
REMARK  132  A    between atoms: _328  and  _329
REMARK  133  A    between atoms: _334  and  _335
REMARK  134  A    between atoms: _337  and  _339
REMARK  135  A    between atoms: _339  and  _340
REMARK  136  A    between atoms: _339  and  _342
REMARK  137  A    between atoms: _342  and  _343
REMARK  138  A    between atoms: _348  and  _350
REMARK  139  A    between atoms: _350  and  _351
REMARK  140  A    between atoms: _350  and  _353
REMARK  141  A    between atoms: _353  and  _354
REMARK  142  A    between atoms: _356  and  _358
REMARK  143  A    between atoms: _358  and  _359
REMARK  144  A    between atoms: _358  and  _361
REMARK  145  A    between atoms: _361  and  _362
REMARK  146  A    between atoms: _365  and  _367
REMARK  147  A    between atoms: _367  and  _368
REMARK  148  A    between atoms: _367  and  _370
REMARK  149  A    between atoms: _370  and  _371
REMARK  150  A    between atoms: _376  and  _378
REMARK  151  A    between atoms: _378  and  _379
REMARK  152  A    between atoms: _378  and  _381
REMARK  153  A    between atoms: _381  and  _382
REMARK  154  A    between atoms: _392  and  _394
REMARK  155  A    between atoms: _394  and  _395
REMARK  156  A    between atoms: _394  and  _397
REMARK  157  A    between atoms: _397  and  _398
REMARK  158  A    between atoms: _404  and  _406
REMARK  159  A    between atoms: _406  and  _407
REMARK  160  A    between atoms: _406  and  _409
REMARK  161  A    between atoms: _409  and  _410
REMARK  162  A    between atoms: _413  and  _415
REMARK  163  A    between atoms: _415  and  _416
REMARK  164  A    between atoms: _415  and  _418
REMARK  165  A    between atoms: _418  and  _419
REMARK  166  A    between atoms: _419  and  _420
REMARK  167  A    between atoms: _420  and  _421
REMARK  168  A    between atoms: _430  and  _432
REMARK  169  A    between atoms: _432  and  _433
REMARK  170  A    between atoms: _432  and  _435
REMARK  171  A    between atoms: _435  and  _436
REMARK  172  A    between atoms: _441  and  _443
REMARK  173  A    between atoms: _443  and  _444
REMARK  174  A    between atoms: _443  and  _446
REMARK  175  A    between atoms: _446  and  _447
REMARK  176  A    between atoms: _447  and  _448
REMARK  177  A    between atoms: _448  and  _449
REMARK  178  A    between atoms: _458  and  _460
REMARK  179  A    between atoms: _460  and  _461
REMARK  180  A    between atoms: _464  and  _466
REMARK  181  A    between atoms: _466  and  _467
REMARK  182  A    between atoms: _469  and  _471
REMARK  183  A    between atoms: _471  and  _472
REMARK  184  A    between atoms: _471  and  _474
REMARK  185  A    between atoms: _474  and  _475
REMARK  186  A    between atoms: _485  and  _487
REMARK  187  A    between atoms: _487  and  _488
REMARK  188  A    between atoms: _487  and  _490
REMARK  189  A    between atoms: _490  and  _491
REMARK  190  A    between atoms: _492  and  _494
REMARK  191  A    between atoms: _494  and  _495
REMARK  192  A    between atoms: _498  and  _500
REMARK  193  A    between atoms: _500  and  _501
REMARK  194  A    between atoms: _500  and  _503
REMARK  195  A    between atoms: _503  and  _504
REMARK  196  A    between atoms: _507  and  _509
REMARK  197  A    between atoms: _509  and  _510
REMARK  198  A    between atoms: _509  and  _512
REMARK  199  A    between atoms: _512  and  _513
REMARK  200  A    between atoms: _518  and  _519
REMARK  201  A    between atoms: _521  and  _523
REMARK  202  A    between atoms: _523  and  _524
REMARK  203  A    between atoms: _523  and  _526
REMARK  204  A    between atoms: _526  and  _527
REMARK  205  A    between atoms: _529  and  _531
REMARK  206  A    between atoms: _531  and  _532
REMARK  207  A    between atoms: _531  and  _534
REMARK  208  A    between atoms: _534  and  _535
REMARK  209  A    between atoms: _541  and  _543
REMARK  210  A    between atoms: _543  and  _544
REMARK  211  A    between atoms: _543  and  _546
REMARK  212  A    between atoms: _546  and  _547
REMARK  213  A    between atoms: _550  and  _552
REMARK  214  A    between atoms: _552  and  _553
REMARK  215  A    between atoms: _552  and  _555
REMARK  216  A    between atoms: _555  and  _556
REMARK  217  A    between atoms: _556  and  _557
REMARK  218  A    between atoms: _559  and  _561
REMARK  219  A    between atoms: _561  and  _562
REMARK  220  A    between atoms: _561  and  _564
REMARK  221  A    between atoms: _564  and  _565
REMARK  222  A    between atoms: _567  and  _569
REMARK  223  A    between atoms: _569  and  _570
REMARK  224  A    between atoms: _569  and  _572
REMARK  225  A    between atoms: _572  and  _573
REMARK  226  A    between atoms: _575  and  _577
REMARK  227  A    between atoms: _577  and  _578
REMARK  228  A    between atoms: _577  and  _580
REMARK  229  A    between atoms: _580  and  _581
REMARK  230  A    between atoms: _586  and  _588
REMARK  231  A    between atoms: _588  and  _589
REMARK  232  A    between atoms: _588  and  _591
REMARK  233  A    between atoms: _591  and  _592
REMARK  234  A    between atoms: _597  and  _599
REMARK  235  A    between atoms: _599  and  _600
REMARK  236  A    between atoms: _599  and  _602
REMARK  237  A    between atoms: _602  and  _603
REMARK  238  A    between atoms: _606  and  _608
REMARK  239  A    between atoms: _608  and  _609
REMARK  240  A    between atoms: _612  and  _614
REMARK  241  A    between atoms: _614  and  _615
REMARK  242  A    between atoms: _614  and  _617
REMARK  243  A    between atoms: _617  and  _618
REMARK  244  A    between atoms: _623  and  _625
REMARK  245  A    between atoms: _625  and  _626
REMARK  246  A    between atoms: _625  and  _628
REMARK  247  A    between atoms: _628  and  _629
REMARK  248  A    between atoms: _632  and  _634
REMARK  249  A    between atoms: _634  and  _635
REMARK  250  A    between atoms: _634  and  _637
REMARK  251  A    between atoms: _637  and  _638
REMARK  252  A    between atoms: _643  and  _644
REMARK  253  A    between atoms: _646  and  _648
REMARK  254  A    between atoms: _648  and  _649
REMARK  255  A    between atoms: _648  and  _651
REMARK  256  A    between atoms: _651  and  _652
REMARK  257  A    between atoms: _657  and  _658
REMARK  258  A    between atoms: _660  and  _662
REMARK  259  A    between atoms: _662  and  _663
REMARK  260  A    between atoms: _662  and  _665
REMARK  261  A    between atoms: _668  and  _670
REMARK  262  A    between atoms: _670  and  _671
REMARK  263  A    between atoms: _670  and  _673
REMARK  264  A    between atoms: _673  and  _674
REMARK  265  A    between atoms: _679  and  _681
REMARK  266  A    between atoms: _681  and  _682
REMARK  267  A    between atoms: _685  and  _687
REMARK  268  A    between atoms: _687  and  _688
REMARK  269  A    between atoms: _687  and  _690
REMARK  270  A    between atoms: _690  and  _691
REMARK  271  A    between atoms: _691  and  _692
REMARK  272  A    between atoms: _692  and  _693
REMARK  273  A    between atoms: _702  and  _704
REMARK  274  A    between atoms: _704  and  _705
REMARK  275  A    between atoms: _704  and  _707
REMARK  276  A    between atoms: _707  and  _708
REMARK  277  A    between atoms: _711  and  _713
REMARK  278  A    between atoms: _713  and  _714
REMARK  279  A    between atoms: _713  and  _716
REMARK  280  A    between atoms: _716  and  _717
REMARK  281  A    between atoms: _720  and  _722
REMARK  282  A    between atoms: _722  and  _723
REMARK  283  A    between atoms: _722  and  _725
REMARK  284  A    between atoms: _725  and  _726
REMARK                            x       y       z     vdW  Elec       q    Type
REMARK                         _______ _______ _______ _____ _____    ______ ____
ROOT
ATOM      1  O   HOH     1       3.754  12.789  11.907  0.00  0.00    +0.000 OA
ENDROOT
TORSDOF 0
REMARK  Name = ../refined-set-2016/1b0h/1b0h_pocket.pdb
REMARK  284 active torsions:
REMARK  status: ('A' for Active; 'I' for Inactive)
REMARK    1  A    between atoms: _1  and  _3
REMARK    2  A    between atoms: _3  and  _4
REMARK    3  A    between atoms: _3  and  _6
REMARK    4  A    between atoms: _6  and  _7
REMARK    5  A    between atoms: _12  and  _14
REMARK    6  A    between atoms: _14  and  _15
REMARK    7  A    between atoms: _17  and  _19
REMARK    8  A    between atoms: _19  and  _20
REMARK    9  A    between atoms: _19  and  _22
REMARK   10  A    between atoms: _22  and  _23
REMARK   11  A    between atoms: _25  and  _27
REMARK   12  A    between atoms: _27  and  _28
REMARK   13  A    between atoms: _27  and  _30
REMARK   14  A    between atoms: _30  and  _31
REMARK   15  A    between atoms: _31  and  _32
REMARK   16  A    between atoms: _37  and  _39
REMARK   17  A    between atoms: _39  and  _40
REMARK   18  A    between atoms: _39  and  _42
REMARK   19  A    between atoms: _42  and  _43
REMARK   20  A    between atoms: _46  and  _48
REMARK   21  A    between atoms: _48  and  _49
REMARK   22  A    between atoms: _48  and  _51
REMARK   23  A    between atoms: _51  and  _52
REMARK   24  A    between atoms: _52  and  _53
REMARK   25  A    between atoms: _56  and  _58
REMARK   26  A    between atoms: _58  and  _59
REMARK   27  A    between atoms: _61  and  _63
REMARK   28  A    between atoms: _63  and  _64
REMARK   29  A    between atoms: _63  and  _66
REMARK   30  A    between atoms: _70  and  _71
REMARK   31  A    between atoms: _76  and  _78
REMARK   32  A    between atoms: _78  and  _79
REMARK   33  A    between atoms: _78  and  _81
REMARK   34  A    between atoms: _81  and  _82
REMARK   35  A    between atoms: _82  and  _83
REMARK   36  A    between atoms: _86  and  _88
REMARK   37  A    between atoms: _88  and  _89
REMARK   38  A    between atoms: _88  and  _91
REMARK   39  A    between atoms: _91  and  _92
REMARK   40  A    between atoms: _94  and  _96
REMARK   41  A    between atoms: _96  and  _97
REMARK   42  A    between atoms: _96  and  _99
REMARK   43  A    between atoms: _99  and  _100
REMARK   44  A    between atoms: _105  and  _107
REMARK   45  A    between atoms: _107  and  _108
REMARK   46  A    between atoms: _107  and  _110
REMARK   47  A    between atoms: _110  and  _111
REMARK   48  A    between atoms: _111  and  _112
REMARK   49  A    between atoms: _112  and  _113
REMARK   50  A    between atoms: _123  and  _124
REMARK   51  A    between atoms: _129  and  _131
REMARK   52  A    between atoms: _131  and  _132
REMARK   53  A    between atoms: _131  and  _134
REMARK   54  A    between atoms: _134  and  _135
REMARK   55  A    between atoms: _140  and  _141
REMARK   56  A    between atoms: _143  and  _145
REMARK   57  A    between atoms: _145  and  _146
REMARK   58  A    between atoms: _145  and  _148
REMARK   59  A    between atoms: _148  and  _149
REMARK   60  A    between atoms: _154  and  _155
REMARK   61  A    between atoms: _157  and  _159
REMARK   62  A    between atoms: _159  and  _160
REMARK   63  A    between atoms: _159  and  _162
REMARK   64  A    between atoms: _165  and  _167
REMARK   65  A    between atoms: _167  and  _168
REMARK   66  A    between atoms: _167  and  _170
REMARK   67  A    between atoms: _170  and  _171
REMARK   68  A    between atoms: _177  and  _178
REMARK   69  A    between atoms: _183  and  _185
REMARK   70  A    between atoms: _185  and  _186
REMARK   71  A    between atoms: _185  and  _188
REMARK   72  A    between atoms: _188  and  _189
REMARK   73  A    between atoms: _191  and  _193
REMARK   74  A    between atoms: _193  and  _194
REMARK   75  A    between atoms: _193  and  _196
REMARK   76  A    between atoms: _196  and  _197
REMARK   77  A    between atoms: _197  and  _198
REMARK   78  A    between atoms: _201  and  _203
REMARK   79  A    between atoms: _203  and  _204
REMARK   80  A    between atoms: _203  and  _206
REMARK   81  A    between atoms: _206  and  _207
REMARK   82  A    between atoms: _212  and  _213
REMARK   83  A    between atoms: _215  and  _217
REMARK   84  A    between atoms: _217  and  _218
REMARK   85  A    between atoms: _217  and  _220
REMARK   86  A    between atoms: _220  and  _221
REMARK   87  A    between atoms: _226  and  _228
REMARK   88  A    between atoms: _228  and  _229
REMARK   89  A    between atoms: _228  and  _231
REMARK   90  A    between atoms: _231  and  _232
REMARK   91  A    between atoms: _237  and  _239
REMARK   92  A    between atoms: _239  and  _240
REMARK   93  A    between atoms: _239  and  _242
REMARK   94  A    between atoms: _242  and  _243
REMARK   95  A    between atoms: _243  and  _244
REMARK   96  A    between atoms: _246  and  _248
REMARK   97  A    between atoms: _248  and  _249
REMARK   98  A    between atoms: _248  and  _251
REMARK   99  A    between atoms: _251  and  _252
REMARK  100  A    between atoms: _257  and  _258
REMARK  101  A    between atoms: _260  and  _262
REMARK  102  A    between atoms: _262  and  _263
REMARK  103  A    between atoms: _262  and  _265
REMARK  104  A    between atoms: _265  and  _266
REMARK  105  A    between atoms: _269  and  _271
REMARK  106  A    between atoms: _271  and  _272
REMARK  107  A    between atoms: _271  and  _274
REMARK  108  A    between atoms: _274  and  _275
REMARK  109  A    between atoms: _275  and  _491
REMARK  110  A    between atoms: _276  and  _278
REMARK  111  A    between atoms: _278  and  _279
REMARK  112  A    between atoms: _278  and  _281
REMARK  113  A    between atoms: _281  and  _282
REMARK  114  A    between atoms: _285  and  _287
REMARK  115  A    between atoms: _287  and  _288
REMARK  116  A    between atoms: _287  and  _290
REMARK  117  A    between atoms: _290  and  _291
REMARK  118  A    between atoms: _296  and  _297
REMARK  119  A    between atoms: _299  and  _301
REMARK  120  A    between atoms: _301  and  _302
REMARK  121  A    between atoms: _301  and  _304
REMARK  122  A    between atoms: _304  and  _305
REMARK  123  A    between atoms: _310  and  _311
REMARK  124  A    between atoms: _313  and  _315
REMARK  125  A    between atoms: _315  and  _316
REMARK  126  A    between atoms: _315  and  _318
REMARK  127  A    between atoms: _318  and  _319
REMARK  128  A    between atoms: _319  and  _320
REMARK  129  A    between atoms: _323  and  _325
REMARK  130  A    between atoms: _325  and  _326
REMARK  131  A    between atoms: _325  and  _328
REMARK  132  A    between atoms: _328  and  _329
REMARK  133  A    between atoms: _334  and  _335
REMARK  134  A    between atoms: _337  and  _339
REMARK  135  A    between atoms: _339  and  _340
REMARK  136  A    between atoms: _339  and  _342
REMARK  137  A    between atoms: _342  and  _343
REMARK  138  A    between atoms: _348  and  _350
REMARK  139  A    between atoms: _350  and  _351
REMARK  140  A    between atoms: _350  and  _353
REMARK  141  A    between atoms: _353  and  _354
REMARK  142  A    between atoms: _356  and  _358
REMARK  143  A    between atoms: _358  and  _359
REMARK  144  A    between atoms: _358  and  _361
REMARK  145  A    between atoms: _361  and  _362
REMARK  146  A    between atoms: _365  and  _367
REMARK  147  A    between atoms: _367  and  _368
REMARK  148  A    between atoms: _367  and  _370
REMARK  149  A    between atoms: _370  and  _371
REMARK  150  A    between atoms: _376  and  _378
REMARK  151  A    between atoms: _378  and  _379
REMARK  152  A    between atoms: _378  and  _381
REMARK  153  A    between atoms: _381  and  _382
REMARK  154  A    between atoms: _392  and  _394
REMARK  155  A    between atoms: _394  and  _395
REMARK  156  A    between atoms: _394  and  _397
REMARK  157  A    between atoms: _397  and  _398
REMARK  158  A    between atoms: _404  and  _406
REMARK  159  A    between atoms: _406  and  _407
REMARK  160  A    between atoms: _406  and  _409
REMARK  161  A    between atoms: _409  and  _410
REMARK  162  A    between atoms: _413  and  _415
REMARK  163  A    between atoms: _415  and  _416
REMARK  164  A    between atoms: _415  and  _418
REMARK  165  A    between atoms: _418  and  _419
REMARK  166  A    between atoms: _419  and  _420
REMARK  167  A    between atoms: _420  and  _421
REMARK  168  A    between atoms: _430  and  _432
REMARK  169  A    between atoms: _432  and  _433
REMARK  170  A    between atoms: _432  and  _435
REMARK  171  A    between atoms: _435  and  _436
REMARK  172  A    between atoms: _441  and  _443
REMARK  173  A    between atoms: _443  and  _444
REMARK  174  A    between atoms: _443  and  _446
REMARK  175  A    between atoms: _446  and  _447
REMARK  176  A    between atoms: _447  and  _448
REMARK  177  A    between atoms: _448  and  _449
REMARK  178  A    between atoms: _458  and  _460
REMARK  179  A    between atoms: _460  and  _461
REMARK  180  A    between atoms: _464  and  _466
REMARK  181  A    between atoms: _466  and  _467
REMARK  182  A    between atoms: _469  and  _471
REMARK  183  A    between atoms: _471  and  _472
REMARK  184  A    between atoms: _471  and  _474
REMARK  185  A    between atoms: _474  and  _475
REMARK  186  A    between atoms: _485  and  _487
REMARK  187  A    between atoms: _487  and  _488
REMARK  188  A    between atoms: _487  and  _490
REMARK  189  A    between atoms: _490  and  _491
REMARK  190  A    between atoms: _492  and  _494
REMARK  191  A    between atoms: _494  and  _495
REMARK  192  A    between atoms: _498  and  _500
REMARK  193  A    between atoms: _500  and  _501
REMARK  194  A    between atoms: _500  and  _503
REMARK  195  A    between atoms: _503  and  _504
REMARK  196  A    between atoms: _507  and  _509
REMARK  197  A    between atoms: _509  and  _510
REMARK  198  A    between atoms: _509  and  _512
REMARK  199  A    between atoms: _512  and  _513
REMARK  200  A    between atoms: _518  and  _519
REMARK  201  A    between atoms: _521  and  _523
REMARK  202  A    between atoms: _523  and  _524
REMARK  203  A    between atoms: _523  and  _526
REMARK  204  A    between atoms: _526  and  _527
REMARK  205  A    between atoms: _529  and  _531
REMARK  206  A    between atoms: _531  and  _532
REMARK  207  A    between atoms: _531  and  _534
REMARK  208  A    between atoms: _534  and  _535
REMARK  209  A    between atoms: _541  and  _543
REMARK  210  A    between atoms: _543  and  _544
REMARK  211  A    between atoms: _543  and  _546
REMARK  212  A    between atoms: _546  and  _547
REMARK  213  A    between atoms: _550  and  _552
REMARK  214  A    between atoms: _552  and  _553
REMARK  215  A    between atoms: _552  and  _555
REMARK  216  A    between atoms: _555  and  _556
REMARK  217  A    between atoms: _556  and  _557
REMARK  218  A    between atoms: _559  and  _561
REMARK  219  A    between atoms: _561  and  _562
REMARK  220  A    between atoms: _561  and  _564
REMARK  221  A    between atoms: _564  and  _565
REMARK  222  A    between atoms: _567  and  _569
REMARK  223  A    between atoms: _569  and  _570
REMARK  224  A    between atoms: _569  and  _572
REMARK  225  A    between atoms: _572  and  _573
REMARK  226  A    between atoms: _575  and  _577
REMARK  227  A    between atoms: _577  and  _578
REMARK  228  A    between atoms: _577  and  _580
REMARK  229  A    between atoms: _580  and  _581
REMARK  230  A    between atoms: _586  and  _588
REMARK  231  A    between atoms: _588  and  _589
REMARK  232  A    between atoms: _588  and  _591
REMARK  233  A    between atoms: _591  and  _592
REMARK  234  A    between atoms: _597  and  _599
REMARK  235  A    between atoms: _599  and  _600
REMARK  236  A    between atoms: _599  and  _602
REMARK  237  A    between atoms: _602  and  _603
REMARK  238  A    between atoms: _606  and  _608
REMARK  239  A    between atoms: _608  and  _609
REMARK  240  A    between atoms: _612  and  _614
REMARK  241  A    between atoms: _614  and  _615
REMARK  242  A    between atoms: _614  and  _617
REMARK  243  A    between atoms: _617  and  _618
REMARK  244  A    between atoms: _623  and  _625
REMARK  245  A    between atoms: _625  and  _626
REMARK  246  A    between atoms: _625  and  _628
REMARK  247  A    between atoms: _628  and  _629
REMARK  248  A    between atoms: _632  and  _634
REMARK  249  A    between atoms: _634  and  _635
REMARK  250  A    between atoms: _634  and  _637
REMARK  251  A    between atoms: _637  and  _638
REMARK  252  A    between atoms: _643  and  _644
REMARK  253  A    between atoms: _646  and  _648
REMARK  254  A    between atoms: _648  and  _649
REMARK  255  A    between atoms: _648  and  _651
REMARK  256  A    between atoms: _651  and  _652
REMARK  257  A    between atoms: _657  and  _658
REMARK  258  A    between atoms: _660  and  _662
REMARK  259  A    between atoms: _662  and  _663
REMARK  260  A    between atoms: _662  and  _665
REMARK  261  A    between atoms: _668  and  _670
REMARK  262  A    between atoms: _670  and  _671
REMARK  263  A    between atoms: _670  and  _673
REMARK  264  A    between atoms: _673  and  _674
REMARK  265  A    between atoms: _679  and  _681
REMARK  266  A    between atoms: _681  and  _682
REMARK  267  A    between atoms: _685  and  _687
REMARK  268  A    between atoms: _687  and  _688
REMARK  269  A    between atoms: _687  and  _690
REMARK  270  A    between atoms: _690  and  _691
REMARK  271  A    between atoms: _691  and  _692
REMARK  272  A    between atoms: _692  and  _693
REMARK  273  A    between atoms: _702  and  _704
REMARK  274  A    between atoms: _704  and  _705
REMARK  275  A    between atoms: _704  and  _707
REMARK  276  A    between atoms: _707  and  _708
REMARK  277  A    between atoms: _711  and  _713
REMARK  278  A    between atoms: _713  and  _714
REMARK  279  A    between atoms: _713  and  _716
REMARK  280  A    between atoms: _716  and  _717
REMARK  281  A    between atoms: _720  and  _722
REMARK  282  A    between atoms: _722  and  _723
REMARK  283  A    between atoms: _722  and  _725
REMARK  284  A    between atoms: _725  and  _726
REMARK                            x       y       z     vdW  Elec       q    Type
REMARK                         _______ _______ _______ _____ _____    ______ ____
ROOT
ATOM      1  O   HOH     1       8.349  29.190  16.725  0.00  0.00    +0.000 OA
ENDROOT
TORSDOF 0
REMARK  Name = ../refined-set-2016/1b0h/1b0h_pocket.pdb
REMARK  284 active torsions:
REMARK  status: ('A' for Active; 'I' for Inactive)
REMARK    1  A    between atoms: _1  and  _3
REMARK    2  A    between atoms: _3  and  _4
REMARK    3  A    between atoms: _3  and  _6
REMARK    4  A    between atoms: _6  and  _7
REMARK    5  A    between atoms: _12  and  _14
REMARK    6  A    between atoms: _14  and  _15
REMARK    7  A    between atoms: _17  and  _19
REMARK    8  A    between atoms: _19  and  _20
REMARK    9  A    between atoms: _19  and  _22
REMARK   10  A    between atoms: _22  and  _23
REMARK   11  A    between atoms: _25  and  _27
REMARK   12  A    between atoms: _27  and  _28
REMARK   13  A    between atoms: _27  and  _30
REMARK   14  A    between atoms: _30  and  _31
REMARK   15  A    between atoms: _31  and  _32
REMARK   16  A    between atoms: _37  and  _39
REMARK   17  A    between atoms: _39  and  _40
REMARK   18  A    between atoms: _39  and  _42
REMARK   19  A    between atoms: _42  and  _43
REMARK   20  A    between atoms: _46  and  _48
REMARK   21  A    between atoms: _48  and  _49
REMARK   22  A    between atoms: _48  and  _51
REMARK   23  A    between atoms: _51  and  _52
REMARK   24  A    between atoms: _52  and  _53
REMARK   25  A    between atoms: _56  and  _58
REMARK   26  A    between atoms: _58  and  _59
REMARK   27  A    between atoms: _61  and  _63
REMARK   28  A    between atoms: _63  and  _64
REMARK   29  A    between atoms: _63  and  _66
REMARK   30  A    between atoms: _70  and  _71
REMARK   31  A    between atoms: _76  and  _78
REMARK   32  A    between atoms: _78  and  _79
REMARK   33  A    between atoms: _78  and  _81
REMARK   34  A    between atoms: _81  and  _82
REMARK   35  A    between atoms: _82  and  _83
REMARK   36  A    between atoms: _86  and  _88
REMARK   37  A    between atoms: _88  and  _89
REMARK   38  A    between atoms: _88  and  _91
REMARK   39  A    between atoms: _91  and  _92
REMARK   40  A    between atoms: _94  and  _96
REMARK   41  A    between atoms: _96  and  _97
REMARK   42  A    between atoms: _96  and  _99
REMARK   43  A    between atoms: _99  and  _100
REMARK   44  A    between atoms: _105  and  _107
REMARK   45  A    between atoms: _107  and  _108
REMARK   46  A    between atoms: _107  and  _110
REMARK   47  A    between atoms: _110  and  _111
REMARK   48  A    between atoms: _111  and  _112
REMARK   49  A    between atoms: _112  and  _113
REMARK   50  A    between atoms: _123  and  _124
REMARK   51  A    between atoms: _129  and  _131
REMARK   52  A    between atoms: _131  and  _132
REMARK   53  A    between atoms: _131  and  _134
REMARK   54  A    between atoms: _134  and  _135
REMARK   55  A    between atoms: _140  and  _141
REMARK   56  A    between atoms: _143  and  _145
REMARK   57  A    between atoms: _145  and  _146
REMARK   58  A    between atoms: _145  and  _148
REMARK   59  A    between atoms: _148  and  _149
REMARK   60  A    between atoms: _154  and  _155
REMARK   61  A    between atoms: _157  and  _159
REMARK   62  A    between atoms: _159  and  _160
REMARK   63  A    between atoms: _159  and  _162
REMARK   64  A    between atoms: _165  and  _167
REMARK   65  A    between atoms: _167  and  _168
REMARK   66  A    between atoms: _167  and  _170
REMARK   67  A    between atoms: _170  and  _171
REMARK   68  A    between atoms: _177  and  _178
REMARK   69  A    between atoms: _183  and  _185
REMARK   70  A    between atoms: _185  and  _186
REMARK   71  A    between atoms: _185  and  _188
REMARK   72  A    between atoms: _188  and  _189
REMARK   73  A    between atoms: _191  and  _193
REMARK   74  A    between atoms: _193  and  _194
REMARK   75  A    between atoms: _193  and  _196
REMARK   76  A    between atoms: _196  and  _197
REMARK   77  A    between atoms: _197  and  _198
REMARK   78  A    between atoms: _201  and  _203
REMARK   79  A    between atoms: _203  and  _204
REMARK   80  A    between atoms: _203  and  _206
REMARK   81  A    between atoms: _206  and  _207
REMARK   82  A    between atoms: _212  and  _213
REMARK   83  A    between atoms: _215  and  _217
REMARK   84  A    between atoms: _217  and  _218
REMARK   85  A    between atoms: _217  and  _220
REMARK   86  A    between atoms: _220  and  _221
REMARK   87  A    between atoms: _226  and  _228
REMARK   88  A    between atoms: _228  and  _229
REMARK   89  A    between atoms: _228  and  _231
REMARK   90  A    between atoms: _231  and  _232
REMARK   91  A    between atoms: _237  and  _239
REMARK   92  A    between atoms: _239  and  _240
REMARK   93  A    between atoms: _239  and  _242
REMARK   94  A    between atoms: _242  and  _243
REMARK   95  A    between atoms: _243  and  _244
REMARK   96  A    between atoms: _246  and  _248
REMARK   97  A    between atoms: _248  and  _249
REMARK   98  A    between atoms: _248  and  _251
REMARK   99  A    between atoms: _251  and  _252
REMARK  100  A    between atoms: _257  and  _258
REMARK  101  A    between atoms: _260  and  _262
REMARK  102  A    between atoms: _262  and  _263
REMARK  103  A    between atoms: _262  and  _265
REMARK  104  A    between atoms: _265  and  _266
REMARK  105  A    between atoms: _269  and  _271
REMARK  106  A    between atoms: _271  and  _272
REMARK  107  A    between atoms: _271  and  _274
REMARK  108  A    between atoms: _274  and  _275
REMARK  109  A    between atoms: _275  and  _491
REMARK  110  A    between atoms: _276  and  _278
REMARK  111  A    between atoms: _278  and  _279
REMARK  112  A    between atoms: _278  and  _281
REMARK  113  A    between atoms: _281  and  _282
REMARK  114  A    between atoms: _285  and  _287
REMARK  115  A    between atoms: _287  and  _288
REMARK  116  A    between atoms: _287  and  _290
REMARK  117  A    between atoms: _290  and  _291
REMARK  118  A    between atoms: _296  and  _297
REMARK  119  A    between atoms: _299  and  _301
REMARK  120  A    between atoms: _301  and  _302
REMARK  121  A    between atoms: _301  and  _304
REMARK  122  A    between atoms: _304  and  _305
REMARK  123  A    between atoms: _310  and  _311
REMARK  124  A    between atoms: _313  and  _315
REMARK  125  A    between atoms: _315  and  _316
REMARK  126  A    between atoms: _315  and  _318
REMARK  127  A    between atoms: _318  and  _319
REMARK  128  A    between atoms: _319  and  _320
REMARK  129  A    between atoms: _323  and  _325
REMARK  130  A    between atoms: _325  and  _326
REMARK  131  A    between atoms: _325  and  _328
REMARK  132  A    between atoms: _328  and  _329
REMARK  133  A    between atoms: _334  and  _335
REMARK  134  A    between atoms: _337  and  _339
REMARK  135  A    between atoms: _339  and  _340
REMARK  136  A    between atoms: _339  and  _342
REMARK  137  A    between atoms: _342  and  _343
REMARK  138  A    between atoms: _348  and  _350
REMARK  139  A    between atoms: _350  and  _351
REMARK  140  A    between atoms: _350  and  _353
REMARK  141  A    between atoms: _353  and  _354
REMARK  142  A    between atoms: _356  and  _358
REMARK  143  A    between atoms: _358  and  _359
REMARK  144  A    between atoms: _358  and  _361
REMARK  145  A    between atoms: _361  and  _362
REMARK  146  A    between atoms: _365  and  _367
REMARK  147  A    between atoms: _367  and  _368
REMARK  148  A    between atoms: _367  and  _370
REMARK  149  A    between atoms: _370  and  _371
REMARK  150  A    between atoms: _376  and  _378
REMARK  151  A    between atoms: _378  and  _379
REMARK  152  A    between atoms: _378  and  _381
REMARK  153  A    between atoms: _381  and  _382
REMARK  154  A    between atoms: _392  and  _394
REMARK  155  A    between atoms: _394  and  _395
REMARK  156  A    between atoms: _394  and  _397
REMARK  157  A    between atoms: _397  and  _398
REMARK  158  A    between atoms: _404  and  _406
REMARK  159  A    between atoms: _406  and  _407
REMARK  160  A    between atoms: _406  and  _409
REMARK  161  A    between atoms: _409  and  _410
REMARK  162  A    between atoms: _413  and  _415
REMARK  163  A    between atoms: _415  and  _416
REMARK  164  A    between atoms: _415  and  _418
REMARK  165  A    between atoms: _418  and  _419
REMARK  166  A    between atoms: _419  and  _420
REMARK  167  A    between atoms: _420  and  _421
REMARK  168  A    between atoms: _430  and  _432
REMARK  169  A    between atoms: _432  and  _433
REMARK  170  A    between atoms: _432  and  _435
REMARK  171  A    between atoms: _435  and  _436
REMARK  172  A    between atoms: _441  and  _443
REMARK  173  A    between atoms: _443  and  _444
REMARK  174  A    between atoms: _443  and  _446
REMARK  175  A    between atoms: _446  and  _447
REMARK  176  A    between atoms: _447  and  _448
REMARK  177  A    between atoms: _448  and  _449
REMARK  178  A    between atoms: _458  and  _460
REMARK  179  A    between atoms: _460  and  _461
REMARK  180  A    between atoms: _464  and  _466
REMARK  181  A    between atoms: _466  and  _467
REMARK  182  A    between atoms: _469  and  _471
REMARK  183  A    between atoms: _471  and  _472
REMARK  184  A    between atoms: _471  and  _474
REMARK  185  A    between atoms: _474  and  _475
REMARK  186  A    between atoms: _485  and  _487
REMARK  187  A    between atoms: _487  and  _488
REMARK  188  A    between atoms: _487  and  _490
REMARK  189  A    between atoms: _490  and  _491
REMARK  190  A    between atoms: _492  and  _494
REMARK  191  A    between atoms: _494  and  _495
REMARK  192  A    between atoms: _498  and  _500
REMARK  193  A    between atoms: _500  and  _501
REMARK  194  A    between atoms: _500  and  _503
REMARK  195  A    between atoms: _503  and  _504
REMARK  196  A    between atoms: _507  and  _509
REMARK  197  A    between atoms: _509  and  _510
REMARK  198  A    between atoms: _509  and  _512
REMARK  199  A    between atoms: _512  and  _513
REMARK  200  A    between atoms: _518  and  _519
REMARK  201  A    between atoms: _521  and  _523
REMARK  202  A    between atoms: _523  and  _524
REMARK  203  A    between atoms: _523  and  _526
REMARK  204  A    between atoms: _526  and  _527
REMARK  205  A    between atoms: _529  and  _531
REMARK  206  A    between atoms: _531  and  _532
REMARK  207  A    between atoms: _531  and  _534
REMARK  208  A    between atoms: _534  and  _535
REMARK  209  A    between atoms: _541  and  _543
REMARK  210  A    between atoms: _543  and  _544
REMARK  211  A    between atoms: _543  and  _546
REMARK  212  A    between atoms: _546  and  _547
REMARK  213  A    between atoms: _550  and  _552
REMARK  214  A    between atoms: _552  and  _553
REMARK  215  A    between atoms: _552  and  _555
REMARK  216  A    between atoms: _555  and  _556
REMARK  217  A    between atoms: _556  and  _557
REMARK  218  A    between atoms: _559  and  _561
REMARK  219  A    between atoms: _561  and  _562
REMARK  220  A    between atoms: _561  and  _564
REMARK  221  A    between atoms: _564  and  _565
REMARK  222  A    between atoms: _567  and  _569
REMARK  223  A    between atoms: _569  and  _570
REMARK  224  A    between atoms: _569  and  _572
REMARK  225  A    between atoms: _572  and  _573
REMARK  226  A    between atoms: _575  and  _577
REMARK  227  A    between atoms: _577  and  _578
REMARK  228  A    between atoms: _577  and  _580
REMARK  229  A    between atoms: _580  and  _581
REMARK  230  A    between atoms: _586  and  _588
REMARK  231  A    between atoms: _588  and  _589
REMARK  232  A    between atoms: _588  and  _591
REMARK  233  A    between atoms: _591  and  _592
REMARK  234  A    between atoms: _597  and  _599
REMARK  235  A    between atoms: _599  and  _600
REMARK  236  A    between atoms: _599  and  _602
REMARK  237  A    between atoms: _602  and  _603
REMARK  238  A    between atoms: _606  and  _608
REMARK  239  A    between atoms: _608  and  _609
REMARK  240  A    between atoms: _612  and  _614
REMARK  241  A    between atoms: _614  and  _615
REMARK  242  A    between atoms: _614  and  _617
REMARK  243  A    between atoms: _617  and  _618
REMARK  244  A    between atoms: _623  and  _625
REMARK  245  A    between atoms: _625  and  _626
REMARK  246  A    between atoms: _625  and  _628
REMARK  247  A    between atoms: _628  and  _629
REMARK  248  A    between atoms: _632  and  _634
REMARK  249  A    between atoms: _634  and  _635
REMARK  250  A    between atoms: _634  and  _637
REMARK  251  A    between atoms: _637  and  _638
REMARK  252  A    between atoms: _643  and  _644
REMARK  253  A    between atoms: _646  and  _648
REMARK  254  A    between atoms: _648  and  _649
REMARK  255  A    between atoms: _648  and  _651
REMARK  256  A    between atoms: _651  and  _652
REMARK  257  A    between atoms: _657  and  _658
REMARK  258  A    between atoms: _660  and  _662
REMARK  259  A    between atoms: _662  and  _663
REMARK  260  A    between atoms: _662  and  _665
REMARK  261  A    between atoms: _668  and  _670
REMARK  262  A    between atoms: _670  and  _671
REMARK  263  A    between atoms: _670  and  _673
REMARK  264  A    between atoms: _673  and  _674
REMARK  265  A    between atoms: _679  and  _681
REMARK  266  A    between atoms: _681  and  _682
REMARK  267  A    between atoms: _685  and  _687
REMARK  268  A    between atoms: _687  and  _688
REMARK  269  A    between atoms: _687  and  _690
REMARK  270  A    between atoms: _690  and  _691
REMARK  271  A    between atoms: _691  and  _692
REMARK  272  A    between atoms: _692  and  _693
REMARK  273  A    between atoms: _702  and  _704
REMARK  274  A    between atoms: _704  and  _705
REMARK  275  A    between atoms: _704  and  _707
REMARK  276  A    between atoms: _707  and  _708
REMARK  277  A    between atoms: _711  and  _713
REMARK  278  A    between atoms: _713  and  _714
REMARK  279  A    between atoms: _713  and  _716
REMARK  280  A    between atoms: _716  and  _717
REMARK  281  A    between atoms: _720  and  _722
REMARK  282  A    between atoms: _722  and  _723
REMARK  283  A    between atoms: _722  and  _725
REMARK  284  A    between atoms: _725  and  _726
REMARK                            x       y       z     vdW  Elec       q    Type
REMARK                         _______ _______ _______ _____ _____    ______ ____
ROOT
ATOM      1  O   HOH     1      -9.751  13.311  14.256  0.00  0.00    +0.000 OA
ENDROOT
TORSDOF 0
REMARK  Name = ../refined-set-2016/1b0h/1b0h_pocket.pdb
REMARK  284 active torsions:
REMARK  status: ('A' for Active; 'I' for Inactive)
REMARK    1  A    between atoms: _1  and  _3
REMARK    2  A    between atoms: _3  and  _4
REMARK    3  A    between atoms: _3  and  _6
REMARK    4  A    between atoms: _6  and  _7
REMARK    5  A    between atoms: _12  and  _14
REMARK    6  A    between atoms: _14  and  _15
REMARK    7  A    between atoms: _17  and  _19
REMARK    8  A    between atoms: _19  and  _20
REMARK    9  A    between atoms: _19  and  _22
REMARK   10  A    between atoms: _22  and  _23
REMARK   11  A    between atoms: _25  and  _27
REMARK   12  A    between atoms: _27  and  _28
REMARK   13  A    between atoms: _27  and  _30
REMARK   14  A    between atoms: _30  and  _31
REMARK   15  A    between atoms: _31  and  _32
REMARK   16  A    between atoms: _37  and  _39
REMARK   17  A    between atoms: _39  and  _40
REMARK   18  A    between atoms: _39  and  _42
REMARK   19  A    between atoms: _42  and  _43
REMARK   20  A    between atoms: _46  and  _48
REMARK   21  A    between atoms: _48  and  _49
REMARK   22  A    between atoms: _48  and  _51
REMARK   23  A    between atoms: _51  and  _52
REMARK   24  A    between atoms: _52  and  _53
REMARK   25  A    between atoms: _56  and  _58
REMARK   26  A    between atoms: _58  and  _59
REMARK   27  A    between atoms: _61  and  _63
REMARK   28  A    between atoms: _63  and  _64
REMARK   29  A    between atoms: _63  and  _66
REMARK   30  A    between atoms: _70  and  _71
REMARK   31  A    between atoms: _76  and  _78
REMARK   32  A    between atoms: _78  and  _79
REMARK   33  A    between atoms: _78  and  _81
REMARK   34  A    between atoms: _81  and  _82
REMARK   35  A    between atoms: _82  and  _83
REMARK   36  A    between atoms: _86  and  _88
REMARK   37  A    between atoms: _88  and  _89
REMARK   38  A    between atoms: _88  and  _91
REMARK   39  A    between atoms: _91  and  _92
REMARK   40  A    between atoms: _94  and  _96
REMARK   41  A    between atoms: _96  and  _97
REMARK   42  A    between atoms: _96  and  _99
REMARK   43  A    between atoms: _99  and  _100
REMARK   44  A    between atoms: _105  and  _107
REMARK   45  A    between atoms: _107  and  _108
REMARK   46  A    between atoms: _107  and  _110
REMARK   47  A    between atoms: _110  and  _111
REMARK   48  A    between atoms: _111  and  _112
REMARK   49  A    between atoms: _112  and  _113
REMARK   50  A    between atoms: _123  and  _124
REMARK   51  A    between atoms: _129  and  _131
REMARK   52  A    between atoms: _131  and  _132
REMARK   53  A    between atoms: _131  and  _134
REMARK   54  A    between atoms: _134  and  _135
REMARK   55  A    between atoms: _140  and  _141
REMARK   56  A    between atoms: _143  and  _145
REMARK   57  A    between atoms: _145  and  _146
REMARK   58  A    between atoms: _145  and  _148
REMARK   59  A    between atoms: _148  and  _149
REMARK   60  A    between atoms: _154  and  _155
REMARK   61  A    between atoms: _157  and  _159
REMARK   62  A    between atoms: _159  and  _160
REMARK   63  A    between atoms: _159  and  _162
REMARK   64  A    between atoms: _165  and  _167
REMARK   65  A    between atoms: _167  and  _168
REMARK   66  A    between atoms: _167  and  _170
REMARK   67  A    between atoms: _170  and  _171
REMARK   68  A    between atoms: _177  and  _178
REMARK   69  A    between atoms: _183  and  _185
REMARK   70  A    between atoms: _185  and  _186
REMARK   71  A    between atoms: _185  and  _188
REMARK   72  A    between atoms: _188  and  _189
REMARK   73  A    between atoms: _191  and  _193
REMARK   74  A    between atoms: _193  and  _194
REMARK   75  A    between atoms: _193  and  _196
REMARK   76  A    between atoms: _196  and  _197
REMARK   77  A    between atoms: _197  and  _198
REMARK   78  A    between atoms: _201  and  _203
REMARK   79  A    between atoms: _203  and  _204
REMARK   80  A    between atoms: _203  and  _206
REMARK   81  A    between atoms: _206  and  _207
REMARK   82  A    between atoms: _212  and  _213
REMARK   83  A    between atoms: _215  and  _217
REMARK   84  A    between atoms: _217  and  _218
REMARK   85  A    between atoms: _217  and  _220
REMARK   86  A    between atoms: _220  and  _221
REMARK   87  A    between atoms: _226  and  _228
REMARK   88  A    between atoms: _228  and  _229
REMARK   89  A    between atoms: _228  and  _231
REMARK   90  A    between atoms: _231  and  _232
REMARK   91  A    between atoms: _237  and  _239
REMARK   92  A    between atoms: _239  and  _240
REMARK   93  A    between atoms: _239  and  _242
REMARK   94  A    between atoms: _242  and  _243
REMARK   95  A    between atoms: _243  and  _244
REMARK   96  A    between atoms: _246  and  _248
REMARK   97  A    between atoms: _248  and  _249
REMARK   98  A    between atoms: _248  and  _251
REMARK   99  A    between atoms: _251  and  _252
REMARK  100  A    between atoms: _257  and  _258
REMARK  101  A    between atoms: _260  and  _262
REMARK  102  A    between atoms: _262  and  _263
REMARK  103  A    between atoms: _262  and  _265
REMARK  104  A    between atoms: _265  and  _266
REMARK  105  A    between atoms: _269  and  _271
REMARK  106  A    between atoms: _271  and  _272
REMARK  107  A    between atoms: _271  and  _274
REMARK  108  A    between atoms: _274  and  _275
REMARK  109  A    between atoms: _275  and  _491
REMARK  110  A    between atoms: _276  and  _278
REMARK  111  A    between atoms: _278  and  _279
REMARK  112  A    between atoms: _278  and  _281
REMARK  113  A    between atoms: _281  and  _282
REMARK  114  A    between atoms: _285  and  _287
REMARK  115  A    between atoms: _287  and  _288
REMARK  116  A    between atoms: _287  and  _290
REMARK  117  A    between atoms: _290  and  _291
REMARK  118  A    between atoms: _296  and  _297
REMARK  119  A    between atoms: _299  and  _301
REMARK  120  A    between atoms: _301  and  _302
REMARK  121  A    between atoms: _301  and  _304
REMARK  122  A    between atoms: _304  and  _305
REMARK  123  A    between atoms: _310  and  _311
REMARK  124  A    between atoms: _313  and  _315
REMARK  125  A    between atoms: _315  and  _316
REMARK  126  A    between atoms: _315  and  _318
REMARK  127  A    between atoms: _318  and  _319
REMARK  128  A    between atoms: _319  and  _320
REMARK  129  A    between atoms: _323  and  _325
REMARK  130  A    between atoms: _325  and  _326
REMARK  131  A    between atoms: _325  and  _328
REMARK  132  A    between atoms: _328  and  _329
REMARK  133  A    between atoms: _334  and  _335
REMARK  134  A    between atoms: _337  and  _339
REMARK  135  A    between atoms: _339  and  _340
REMARK  136  A    between atoms: _339  and  _342
REMARK  137  A    between atoms: _342  and  _343
REMARK  138  A    between atoms: _348  and  _350
REMARK  139  A    between atoms: _350  and  _351
REMARK  140  A    between atoms: _350  and  _353
REMARK  141  A    between atoms: _353  and  _354
REMARK  142  A    between atoms: _356  and  _358
REMARK  143  A    between atoms: _358  and  _359
REMARK  144  A    between atoms: _358  and  _361
REMARK  145  A    between atoms: _361  and  _362
REMARK  146  A    between atoms: _365  and  _367
REMARK  147  A    between atoms: _367  and  _368
REMARK  148  A    between atoms: _367  and  _370
REMARK  149  A    between atoms: _370  and  _371
REMARK  150  A    between atoms: _376  and  _378
REMARK  151  A    between atoms: _378  and  _379
REMARK  152  A    between atoms: _378  and  _381
REMARK  153  A    between atoms: _381  and  _382
REMARK  154  A    between atoms: _392  and  _394
REMARK  155  A    between atoms: _394  and  _395
REMARK  156  A    between atoms: _394  and  _397
REMARK  157  A    between atoms: _397  and  _398
REMARK  158  A    between atoms: _404  and  _406
REMARK  159  A    between atoms: _406  and  _407
REMARK  160  A    between atoms: _406  and  _409
REMARK  161  A    between atoms: _409  and  _410
REMARK  162  A    between atoms: _413  and  _415
REMARK  163  A    between atoms: _415  and  _416
REMARK  164  A    between atoms: _415  and  _418
REMARK  165  A    between atoms: _418  and  _419
REMARK  166  A    between atoms: _419  and  _420
REMARK  167  A    between atoms: _420  and  _421
REMARK  168  A    between atoms: _430  and  _432
REMARK  169  A    between atoms: _432  and  _433
REMARK  170  A    between atoms: _432  and  _435
REMARK  171  A    between atoms: _435  and  _436
REMARK  172  A    between atoms: _441  and  _443
REMARK  173  A    between atoms: _443  and  _444
REMARK  174  A    between atoms: _443  and  _446
REMARK  175  A    between atoms: _446  and  _447
REMARK  176  A    between atoms: _447  and  _448
REMARK  177  A    between atoms: _448  and  _449
REMARK  178  A    between atoms: _458  and  _460
REMARK  179  A    between atoms: _460  and  _461
REMARK  180  A    between atoms: _464  and  _466
REMARK  181  A    between atoms: _466  and  _467
REMARK  182  A    between atoms: _469  and  _471
REMARK  183  A    between atoms: _471  and  _472
REMARK  184  A    between atoms: _471  and  _474
REMARK  185  A    between atoms: _474  and  _475
REMARK  186  A    between atoms: _485  and  _487
REMARK  187  A    between atoms: _487  and  _488
REMARK  188  A    between atoms: _487  and  _490
REMARK  189  A    between atoms: _490  and  _491
REMARK  190  A    between atoms: _492  and  _494
REMARK  191  A    between atoms: _494  and  _495
REMARK  192  A    between atoms: _498  and  _500
REMARK  193  A    between atoms: _500  and  _501
REMARK  194  A    between atoms: _500  and  _503
REMARK  195  A    between atoms: _503  and  _504
REMARK  196  A    between atoms: _507  and  _509
REMARK  197  A    between atoms: _509  and  _510
REMARK  198  A    between atoms: _509  and  _512
REMARK  199  A    between atoms: _512  and  _513
REMARK  200  A    between atoms: _518  and  _519
REMARK  201  A    between atoms: _521  and  _523
REMARK  202  A    between atoms: _523  and  _524
REMARK  203  A    between atoms: _523  and  _526
REMARK  204  A    between atoms: _526  and  _527
REMARK  205  A    between atoms: _529  and  _531
REMARK  206  A    between atoms: _531  and  _532
REMARK  207  A    between atoms: _531  and  _534
REMARK  208  A    between atoms: _534  and  _535
REMARK  209  A    between atoms: _541  and  _543
REMARK  210  A    between atoms: _543  and  _544
REMARK  211  A    between atoms: _543  and  _546
REMARK  212  A    between atoms: _546  and  _547
REMARK  213  A    between atoms: _550  and  _552
REMARK  214  A    between atoms: _552  and  _553
REMARK  215  A    between atoms: _552  and  _555
REMARK  216  A    between atoms: _555  and  _556
REMARK  217  A    between atoms: _556  and  _557
REMARK  218  A    between atoms: _559  and  _561
REMARK  219  A    between atoms: _561  and  _562
REMARK  220  A    between atoms: _561  and  _564
REMARK  221  A    between atoms: _564  and  _565
REMARK  222  A    between atoms: _567  and  _569
REMARK  223  A    between atoms: _569  and  _570
REMARK  224  A    between atoms: _569  and  _572
REMARK  225  A    between atoms: _572  and  _573
REMARK  226  A    between atoms: _575  and  _577
REMARK  227  A    between atoms: _577  and  _578
REMARK  228  A    between atoms: _577  and  _580
REMARK  229  A    between atoms: _580  and  _581
REMARK  230  A    between atoms: _586  and  _588
REMARK  231  A    between atoms: _588  and  _589
REMARK  232  A    between atoms: _588  and  _591
REMARK  233  A    between atoms: _591  and  _592
REMARK  234  A    between atoms: _597  and  _599
REMARK  235  A    between atoms: _599  and  _600
REMARK  236  A    between atoms: _599  and  _602
REMARK  237  A    between atoms: _602  and  _603
REMARK  238  A    between atoms: _606  and  _608
REMARK  239  A    between atoms: _608  and  _609
REMARK  240  A    between atoms: _612  and  _614
REMARK  241  A    between atoms: _614  and  _615
REMARK  242  A    between atoms: _614  and  _617
REMARK  243  A    between atoms: _617  and  _618
REMARK  244  A    between atoms: _623  and  _625
REMARK  245  A    between atoms: _625  and  _626
REMARK  246  A    between atoms: _625  and  _628
REMARK  247  A    between atoms: _628  and  _629
REMARK  248  A    between atoms: _632  and  _634
REMARK  249  A    between atoms: _634  and  _635
REMARK  250  A    between atoms: _634  and  _637
REMARK  251  A    between atoms: _637  and  _638
REMARK  252  A    between atoms: _643  and  _644
REMARK  253  A    between atoms: _646  and  _648
REMARK  254  A    between atoms: _648  and  _649
REMARK  255  A    between atoms: _648  and  _651
REMARK  256  A    between atoms: _651  and  _652
REMARK  257  A    between atoms: _657  and  _658
REMARK  258  A    between atoms: _660  and  _662
REMARK  259  A    between atoms: _662  and  _663
REMARK  260  A    between atoms: _662  and  _665
REMARK  261  A    between atoms: _668  and  _670
REMARK  262  A    between atoms: _670  and  _671
REMARK  263  A    between atoms: _670  and  _673
REMARK  264  A    between atoms: _673  and  _674
REMARK  265  A    between atoms: _679  and  _681
REMARK  266  A    between atoms: _681  and  _682
REMARK  267  A    between atoms: _685  and  _687
REMARK  268  A    between atoms: _687  and  _688
REMARK  269  A    between atoms: _687  and  _690
REMARK  270  A    between atoms: _690  and  _691
REMARK  271  A    between atoms: _691  and  _692
REMARK  272  A    between atoms: _692  and  _693
REMARK  273  A    between atoms: _702  and  _704
REMARK  274  A    between atoms: _704  and  _705
REMARK  275  A    between atoms: _704  and  _707
REMARK  276  A    between atoms: _707  and  _708
REMARK  277  A    between atoms: _711  and  _713
REMARK  278  A    between atoms: _713  and  _714
REMARK  279  A    between atoms: _713  and  _716
REMARK  280  A    between atoms: _716  and  _717
REMARK  281  A    between atoms: _720  and  _722
REMARK  282  A    between atoms: _722  and  _723
REMARK  283  A    between atoms: _722  and  _725
REMARK  284  A    between atoms: _725  and  _726
REMARK                            x       y       z     vdW  Elec       q    Type
REMARK                         _______ _______ _______ _____ _____    ______ ____
ROOT
ATOM      1  O   HOH     1       6.192   7.886   7.518  0.00  0.00    +0.000 OA
ENDROOT
TORSDOF 0
REMARK  Name = ../refined-set-2016/1b0h/1b0h_pocket.pdb
REMARK  284 active torsions:
REMARK  status: ('A' for Active; 'I' for Inactive)
REMARK    1  A    between atoms: _1  and  _3
REMARK    2  A    between atoms: _3  and  _4
REMARK    3  A    between atoms: _3  and  _6
REMARK    4  A    between atoms: _6  and  _7
REMARK    5  A    between atoms: _12  and  _14
REMARK    6  A    between atoms: _14  and  _15
REMARK    7  A    between atoms: _17  and  _19
REMARK    8  A    between atoms: _19  and  _20
REMARK    9  A    between atoms: _19  and  _22
REMARK   10  A    between atoms: _22  and  _23
REMARK   11  A    between atoms: _25  and  _27
REMARK   12  A    between atoms: _27  and  _28
REMARK   13  A    between atoms: _27  and  _30
REMARK   14  A    between atoms: _30  and  _31
REMARK   15  A    between atoms: _31  and  _32
REMARK   16  A    between atoms: _37  and  _39
REMARK   17  A    between atoms: _39  and  _40
REMARK   18  A    between atoms: _39  and  _42
REMARK   19  A    between atoms: _42  and  _43
REMARK   20  A    between atoms: _46  and  _48
REMARK   21  A    between atoms: _48  and  _49
REMARK   22  A    between atoms: _48  and  _51
REMARK   23  A    between atoms: _51  and  _52
REMARK   24  A    between atoms: _52  and  _53
REMARK   25  A    between atoms: _56  and  _58
REMARK   26  A    between atoms: _58  and  _59
REMARK   27  A    between atoms: _61  and  _63
REMARK   28  A    between atoms: _63  and  _64
REMARK   29  A    between atoms: _63  and  _66
REMARK   30  A    between atoms: _70  and  _71
REMARK   31  A    between atoms: _76  and  _78
REMARK   32  A    between atoms: _78  and  _79
REMARK   33  A    between atoms: _78  and  _81
REMARK   34  A    between atoms: _81  and  _82
REMARK   35  A    between atoms: _82  and  _83
REMARK   36  A    between atoms: _86  and  _88
REMARK   37  A    between atoms: _88  and  _89
REMARK   38  A    between atoms: _88  and  _91
REMARK   39  A    between atoms: _91  and  _92
REMARK   40  A    between atoms: _94  and  _96
REMARK   41  A    between atoms: _96  and  _97
REMARK   42  A    between atoms: _96  and  _99
REMARK   43  A    between atoms: _99  and  _100
REMARK   44  A    between atoms: _105  and  _107
REMARK   45  A    between atoms: _107  and  _108
REMARK   46  A    between atoms: _107  and  _110
REMARK   47  A    between atoms: _110  and  _111
REMARK   48  A    between atoms: _111  and  _112
REMARK   49  A    between atoms: _112  and  _113
REMARK   50  A    between atoms: _123  and  _124
REMARK   51  A    between atoms: _129  and  _131
REMARK   52  A    between atoms: _131  and  _132
REMARK   53  A    between atoms: _131  and  _134
REMARK   54  A    between atoms: _134  and  _135
REMARK   55  A    between atoms: _140  and  _141
REMARK   56  A    between atoms: _143  and  _145
REMARK   57  A    between atoms: _145  and  _146
REMARK   58  A    between atoms: _145  and  _148
REMARK   59  A    between atoms: _148  and  _149
REMARK   60  A    between atoms: _154  and  _155
REMARK   61  A    between atoms: _157  and  _159
REMARK   62  A    between atoms: _159  and  _160
REMARK   63  A    between atoms: _159  and  _162
REMARK   64  A    between atoms: _165  and  _167
REMARK   65  A    between atoms: _167  and  _168
REMARK   66  A    between atoms: _167  and  _170
REMARK   67  A    between atoms: _170  and  _171
REMARK   68  A    between atoms: _177  and  _178
REMARK   69  A    between atoms: _183  and  _185
REMARK   70  A    between atoms: _185  and  _186
REMARK   71  A    between atoms: _185  and  _188
REMARK   72  A    between atoms: _188  and  _189
REMARK   73  A    between atoms: _191  and  _193
REMARK   74  A    between atoms: _193  and  _194
REMARK   75  A    between atoms: _193  and  _196
REMARK   76  A    between atoms: _196  and  _197
REMARK   77  A    between atoms: _197  and  _198
REMARK   78  A    between atoms: _201  and  _203
REMARK   79  A    between atoms: _203  and  _204
REMARK   80  A    between atoms: _203  and  _206
REMARK   81  A    between atoms: _206  and  _207
REMARK   82  A    between atoms: _212  and  _213
REMARK   83  A    between atoms: _215  and  _217
REMARK   84  A    between atoms: _217  and  _218
REMARK   85  A    between atoms: _217  and  _220
REMARK   86  A    between atoms: _220  and  _221
REMARK   87  A    between atoms: _226  and  _228
REMARK   88  A    between atoms: _228  and  _229
REMARK   89  A    between atoms: _228  and  _231
REMARK   90  A    between atoms: _231  and  _232
REMARK   91  A    between atoms: _237  and  _239
REMARK   92  A    between atoms: _239  and  _240
REMARK   93  A    between atoms: _239  and  _242
REMARK   94  A    between atoms: _242  and  _243
REMARK   95  A    between atoms: _243  and  _244
REMARK   96  A    between atoms: _246  and  _248
REMARK   97  A    between atoms: _248  and  _249
REMARK   98  A    between atoms: _248  and  _251
REMARK   99  A    between atoms: _251  and  _252
REMARK  100  A    between atoms: _257  and  _258
REMARK  101  A    between atoms: _260  and  _262
REMARK  102  A    between atoms: _262  and  _263
REMARK  103  A    between atoms: _262  and  _265
REMARK  104  A    between atoms: _265  and  _266
REMARK  105  A    between atoms: _269  and  _271
REMARK  106  A    between atoms: _271  and  _272
REMARK  107  A    between atoms: _271  and  _274
REMARK  108  A    between atoms: _274  and  _275
REMARK  109  A    between atoms: _275  and  _491
REMARK  110  A    between atoms: _276  and  _278
REMARK  111  A    between atoms: _278  and  _279
REMARK  112  A    between atoms: _278  and  _281
REMARK  113  A    between atoms: _281  and  _282
REMARK  114  A    between atoms: _285  and  _287
REMARK  115  A    between atoms: _287  and  _288
REMARK  116  A    between atoms: _287  and  _290
REMARK  117  A    between atoms: _290  and  _291
REMARK  118  A    between atoms: _296  and  _297
REMARK  119  A    between atoms: _299  and  _301
REMARK  120  A    between atoms: _301  and  _302
REMARK  121  A    between atoms: _301  and  _304
REMARK  122  A    between atoms: _304  and  _305
REMARK  123  A    between atoms: _310  and  _311
REMARK  124  A    between atoms: _313  and  _315
REMARK  125  A    between atoms: _315  and  _316
REMARK  126  A    between atoms: _315  and  _318
REMARK  127  A    between atoms: _318  and  _319
REMARK  128  A    between atoms: _319  and  _320
REMARK  129  A    between atoms: _323  and  _325
REMARK  130  A    between atoms: _325  and  _326
REMARK  131  A    between atoms: _325  and  _328
REMARK  132  A    between atoms: _328  and  _329
REMARK  133  A    between atoms: _334  and  _335
REMARK  134  A    between atoms: _337  and  _339
REMARK  135  A    between atoms: _339  and  _340
REMARK  136  A    between atoms: _339  and  _342
REMARK  137  A    between atoms: _342  and  _343
REMARK  138  A    between atoms: _348  and  _350
REMARK  139  A    between atoms: _350  and  _351
REMARK  140  A    between atoms: _350  and  _353
REMARK  141  A    between atoms: _353  and  _354
REMARK  142  A    between atoms: _356  and  _358
REMARK  143  A    between atoms: _358  and  _359
REMARK  144  A    between atoms: _358  and  _361
REMARK  145  A    between atoms: _361  and  _362
REMARK  146  A    between atoms: _365  and  _367
REMARK  147  A    between atoms: _367  and  _368
REMARK  148  A    between atoms: _367  and  _370
REMARK  149  A    between atoms: _370  and  _371
REMARK  150  A    between atoms: _376  and  _378
REMARK  151  A    between atoms: _378  and  _379
REMARK  152  A    between atoms: _378  and  _381
REMARK  153  A    between atoms: _381  and  _382
REMARK  154  A    between atoms: _392  and  _394
REMARK  155  A    between atoms: _394  and  _395
REMARK  156  A    between atoms: _394  and  _397
REMARK  157  A    between atoms: _397  and  _398
REMARK  158  A    between atoms: _404  and  _406
REMARK  159  A    between atoms: _406  and  _407
REMARK  160  A    between atoms: _406  and  _409
REMARK  161  A    between atoms: _409  and  _410
REMARK  162  A    between atoms: _413  and  _415
REMARK  163  A    between atoms: _415  and  _416
REMARK  164  A    between atoms: _415  and  _418
REMARK  165  A    between atoms: _418  and  _419
REMARK  166  A    between atoms: _419  and  _420
REMARK  167  A    between atoms: _420  and  _421
REMARK  168  A    between atoms: _430  and  _432
REMARK  169  A    between atoms: _432  and  _433
REMARK  170  A    between atoms: _432  and  _435
REMARK  171  A    between atoms: _435  and  _436
REMARK  172  A    between atoms: _441  and  _443
REMARK  173  A    between atoms: _443  and  _444
REMARK  174  A    between atoms: _443  and  _446
REMARK  175  A    between atoms: _446  and  _447
REMARK  176  A    between atoms: _447  and  _448
REMARK  177  A    between atoms: _448  and  _449
REMARK  178  A    between atoms: _458  and  _460
REMARK  179  A    between atoms: _460  and  _461
REMARK  180  A    between atoms: _464  and  _466
REMARK  181  A    between atoms: _466  and  _467
REMARK  182  A    between atoms: _469  and  _471
REMARK  183  A    between atoms: _471  and  _472
REMARK  184  A    between atoms: _471  and  _474
REMARK  185  A    between atoms: _474  and  _475
REMARK  186  A    between atoms: _485  and  _487
REMARK  187  A    between atoms: _487  and  _488
REMARK  188  A    between atoms: _487  and  _490
REMARK  189  A    between atoms: _490  and  _491
REMARK  190  A    between atoms: _492  and  _494
REMARK  191  A    between atoms: _494  and  _495
REMARK  192  A    between atoms: _498  and  _500
REMARK  193  A    between atoms: _500  and  _501
REMARK  194  A    between atoms: _500  and  _503
REMARK  195  A    between atoms: _503  and  _504
REMARK  196  A    between atoms: _507  and  _509
REMARK  197  A    between atoms: _509  and  _510
REMARK  198  A    between atoms: _509  and  _512
REMARK  199  A    between atoms: _512  and  _513
REMARK  200  A    between atoms: _518  and  _519
REMARK  201  A    between atoms: _521  and  _523
REMARK  202  A    between atoms: _523  and  _524
REMARK  203  A    between atoms: _523  and  _526
REMARK  204  A    between atoms: _526  and  _527
REMARK  205  A    between atoms: _529  and  _531
REMARK  206  A    between atoms: _531  and  _532
REMARK  207  A    between atoms: _531  and  _534
REMARK  208  A    between atoms: _534  and  _535
REMARK  209  A    between atoms: _541  and  _543
REMARK  210  A    between atoms: _543  and  _544
REMARK  211  A    between atoms: _543  and  _546
REMARK  212  A    between atoms: _546  and  _547
REMARK  213  A    between atoms: _550  and  _552
REMARK  214  A    between atoms: _552  and  _553
REMARK  215  A    between atoms: _552  and  _555
REMARK  216  A    between atoms: _555  and  _556
REMARK  217  A    between atoms: _556  and  _557
REMARK  218  A    between atoms: _559  and  _561
REMARK  219  A    between atoms: _561  and  _562
REMARK  220  A    between atoms: _561  and  _564
REMARK  221  A    between atoms: _564  and  _565
REMARK  222  A    between atoms: _567  and  _569
REMARK  223  A    between atoms: _569  and  _570
REMARK  224  A    between atoms: _569  and  _572
REMARK  225  A    between atoms: _572  and  _573
REMARK  226  A    between atoms: _575  and  _577
REMARK  227  A    between atoms: _577  and  _578
REMARK  228  A    between atoms: _577  and  _580
REMARK  229  A    between atoms: _580  and  _581
REMARK  230  A    between atoms: _586  and  _588
REMARK  231  A    between atoms: _588  and  _589
REMARK  232  A    between atoms: _588  and  _591
REMARK  233  A    between atoms: _591  and  _592
REMARK  234  A    between atoms: _597  and  _599
REMARK  235  A    between atoms: _599  and  _600
REMARK  236  A    between atoms: _599  and  _602
REMARK  237  A    between atoms: _602  and  _603
REMARK  238  A    between atoms: _606  and  _608
REMARK  239  A    between atoms: _608  and  _609
REMARK  240  A    between atoms: _612  and  _614
REMARK  241  A    between atoms: _614  and  _615
REMARK  242  A    between atoms: _614  and  _617
REMARK  243  A    between atoms: _617  and  _618
REMARK  244  A    between atoms: _623  and  _625
REMARK  245  A    between atoms: _625  and  _626
REMARK  246  A    between atoms: _625  and  _628
REMARK  247  A    between atoms: _628  and  _629
REMARK  248  A    between atoms: _632  and  _634
REMARK  249  A    between atoms: _634  and  _635
REMARK  250  A    between atoms: _634  and  _637
REMARK  251  A    between atoms: _637  and  _638
REMARK  252  A    between atoms: _643  and  _644
REMARK  253  A    between atoms: _646  and  _648
REMARK  254  A    between atoms: _648  and  _649
REMARK  255  A    between atoms: _648  and  _651
REMARK  256  A    between atoms: _651  and  _652
REMARK  257  A    between atoms: _657  and  _658
REMARK  258  A    between atoms: _660  and  _662
REMARK  259  A    between atoms: _662  and  _663
REMARK  260  A    between atoms: _662  and  _665
REMARK  261  A    between atoms: _668  and  _670
REMARK  262  A    between atoms: _670  and  _671
REMARK  263  A    between atoms: _670  and  _673
REMARK  264  A    between atoms: _673  and  _674
REMARK  265  A    between atoms: _679  and  _681
REMARK  266  A    between atoms: _681  and  _682
REMARK  267  A    between atoms: _685  and  _687
REMARK  268  A    between atoms: _687  and  _688
REMARK  269  A    between atoms: _687  and  _690
REMARK  270  A    between atoms: _690  and  _691
REMARK  271  A    between atoms: _691  and  _692
REMARK  272  A    between atoms: _692  and  _693
REMARK  273  A    between atoms: _702  and  _704
REMARK  274  A    between atoms: _704  and  _705
REMARK  275  A    between atoms: _704  and  _707
REMARK  276  A    between atoms: _707  and  _708
REMARK  277  A    between atoms: _711  and  _713
REMARK  278  A    between atoms: _713  and  _714
REMARK  279  A    between atoms: _713  and  _716
REMARK  280  A    between atoms: _716  and  _717
REMARK  281  A    between atoms: _720  and  _722
REMARK  282  A    between atoms: _722  and  _723
REMARK  283  A    between atoms: _722  and  _725
REMARK  284  A    between atoms: _725  and  _726
REMARK                            x       y       z     vdW  Elec       q    Type
REMARK                         _______ _______ _______ _____ _____    ______ ____
ROOT
ATOM      1  O   HOH     1      -3.137  17.404   5.337  0.00  0.00    +0.000 OA
ENDROOT
TORSDOF 0
REMARK  Name = ../refined-set-2016/1b0h/1b0h_pocket.pdb
REMARK  284 active torsions:
REMARK  status: ('A' for Active; 'I' for Inactive)
REMARK    1  A    between atoms: _1  and  _3
REMARK    2  A    between atoms: _3  and  _4
REMARK    3  A    between atoms: _3  and  _6
REMARK    4  A    between atoms: _6  and  _7
REMARK    5  A    between atoms: _12  and  _14
REMARK    6  A    between atoms: _14  and  _15
REMARK    7  A    between atoms: _17  and  _19
REMARK    8  A    between atoms: _19  and  _20
REMARK    9  A    between atoms: _19  and  _22
REMARK   10  A    between atoms: _22  and  _23
REMARK   11  A    between atoms: _25  and  _27
REMARK   12  A    between atoms: _27  and  _28
REMARK   13  A    between atoms: _27  and  _30
REMARK   14  A    between atoms: _30  and  _31
REMARK   15  A    between atoms: _31  and  _32
REMARK   16  A    between atoms: _37  and  _39
REMARK   17  A    between atoms: _39  and  _40
REMARK   18  A    between atoms: _39  and  _42
REMARK   19  A    between atoms: _42  and  _43
REMARK   20  A    between atoms: _46  and  _48
REMARK   21  A    between atoms: _48  and  _49
REMARK   22  A    between atoms: _48  and  _51
REMARK   23  A    between atoms: _51  and  _52
REMARK   24  A    between atoms: _52  and  _53
REMARK   25  A    between atoms: _56  and  _58
REMARK   26  A    between atoms: _58  and  _59
REMARK   27  A    between atoms: _61  and  _63
REMARK   28  A    between atoms: _63  and  _64
REMARK   29  A    between atoms: _63  and  _66
REMARK   30  A    between atoms: _70  and  _71
REMARK   31  A    between atoms: _76  and  _78
REMARK   32  A    between atoms: _78  and  _79
REMARK   33  A    between atoms: _78  and  _81
REMARK   34  A    between atoms: _81  and  _82
REMARK   35  A    between atoms: _82  and  _83
REMARK   36  A    between atoms: _86  and  _88
REMARK   37  A    between atoms: _88  and  _89
REMARK   38  A    between atoms: _88  and  _91
REMARK   39  A    between atoms: _91  and  _92
REMARK   40  A    between atoms: _94  and  _96
REMARK   41  A    between atoms: _96  and  _97
REMARK   42  A    between atoms: _96  and  _99
REMARK   43  A    between atoms: _99  and  _100
REMARK   44  A    between atoms: _105  and  _107
REMARK   45  A    between atoms: _107  and  _108
REMARK   46  A    between atoms: _107  and  _110
REMARK   47  A    between atoms: _110  and  _111
REMARK   48  A    between atoms: _111  and  _112
REMARK   49  A    between atoms: _112  and  _113
REMARK   50  A    between atoms: _123  and  _124
REMARK   51  A    between atoms: _129  and  _131
REMARK   52  A    between atoms: _131  and  _132
REMARK   53  A    between atoms: _131  and  _134
REMARK   54  A    between atoms: _134  and  _135
REMARK   55  A    between atoms: _140  and  _141
REMARK   56  A    between atoms: _143  and  _145
REMARK   57  A    between atoms: _145  and  _146
REMARK   58  A    between atoms: _145  and  _148
REMARK   59  A    between atoms: _148  and  _149
REMARK   60  A    between atoms: _154  and  _155
REMARK   61  A    between atoms: _157  and  _159
REMARK   62  A    between atoms: _159  and  _160
REMARK   63  A    between atoms: _159  and  _162
REMARK   64  A    between atoms: _165  and  _167
REMARK   65  A    between atoms: _167  and  _168
REMARK   66  A    between atoms: _167  and  _170
REMARK   67  A    between atoms: _170  and  _171
REMARK   68  A    between atoms: _177  and  _178
REMARK   69  A    between atoms: _183  and  _185
REMARK   70  A    between atoms: _185  and  _186
REMARK   71  A    between atoms: _185  and  _188
REMARK   72  A    between atoms: _188  and  _189
REMARK   73  A    between atoms: _191  and  _193
REMARK   74  A    between atoms: _193  and  _194
REMARK   75  A    between atoms: _193  and  _196
REMARK   76  A    between atoms: _196  and  _197
REMARK   77  A    between atoms: _197  and  _198
REMARK   78  A    between atoms: _201  and  _203
REMARK   79  A    between atoms: _203  and  _204
REMARK   80  A    between atoms: _203  and  _206
REMARK   81  A    between atoms: _206  and  _207
REMARK   82  A    between atoms: _212  and  _213
REMARK   83  A    between atoms: _215  and  _217
REMARK   84  A    between atoms: _217  and  _218
REMARK   85  A    between atoms: _217  and  _220
REMARK   86  A    between atoms: _220  and  _221
REMARK   87  A    between atoms: _226  and  _228
REMARK   88  A    between atoms: _228  and  _229
REMARK   89  A    between atoms: _228  and  _231
REMARK   90  A    between atoms: _231  and  _232
REMARK   91  A    between atoms: _237  and  _239
REMARK   92  A    between atoms: _239  and  _240
REMARK   93  A    between atoms: _239  and  _242
REMARK   94  A    between atoms: _242  and  _243
REMARK   95  A    between atoms: _243  and  _244
REMARK   96  A    between atoms: _246  and  _248
REMARK   97  A    between atoms: _248  and  _249
REMARK   98  A    between atoms: _248  and  _251
REMARK   99  A    between atoms: _251  and  _252
REMARK  100  A    between atoms: _257  and  _258
REMARK  101  A    between atoms: _260  and  _262
REMARK  102  A    between atoms: _262  and  _263
REMARK  103  A    between atoms: _262  and  _265
REMARK  104  A    between atoms: _265  and  _266
REMARK  105  A    between atoms: _269  and  _271
REMARK  106  A    between atoms: _271  and  _272
REMARK  107  A    between atoms: _271  and  _274
REMARK  108  A    between atoms: _274  and  _275
REMARK  109  A    between atoms: _275  and  _491
REMARK  110  A    between atoms: _276  and  _278
REMARK  111  A    between atoms: _278  and  _279
REMARK  112  A    between atoms: _278  and  _281
REMARK  113  A    between atoms: _281  and  _282
REMARK  114  A    between atoms: _285  and  _287
REMARK  115  A    between atoms: _287  and  _288
REMARK  116  A    between atoms: _287  and  _290
REMARK  117  A    between atoms: _290  and  _291
REMARK  118  A    between atoms: _296  and  _297
REMARK  119  A    between atoms: _299  and  _301
REMARK  120  A    between atoms: _301  and  _302
REMARK  121  A    between atoms: _301  and  _304
REMARK  122  A    between atoms: _304  and  _305
REMARK  123  A    between atoms: _310  and  _311
REMARK  124  A    between atoms: _313  and  _315
REMARK  125  A    between atoms: _315  and  _316
REMARK  126  A    between atoms: _315  and  _318
REMARK  127  A    between atoms: _318  and  _319
REMARK  128  A    between atoms: _319  and  _320
REMARK  129  A    between atoms: _323  and  _325
REMARK  130  A    between atoms: _325  and  _326
REMARK  131  A    between atoms: _325  and  _328
REMARK  132  A    between atoms: _328  and  _329
REMARK  133  A    between atoms: _334  and  _335
REMARK  134  A    between atoms: _337  and  _339
REMARK  135  A    between atoms: _339  and  _340
REMARK  136  A    between atoms: _339  and  _342
REMARK  137  A    between atoms: _342  and  _343
REMARK  138  A    between atoms: _348  and  _350
REMARK  139  A    between atoms: _350  and  _351
REMARK  140  A    between atoms: _350  and  _353
REMARK  141  A    between atoms: _353  and  _354
REMARK  142  A    between atoms: _356  and  _358
REMARK  143  A    between atoms: _358  and  _359
REMARK  144  A    between atoms: _358  and  _361
REMARK  145  A    between atoms: _361  and  _362
REMARK  146  A    between atoms: _365  and  _367
REMARK  147  A    between atoms: _367  and  _368
REMARK  148  A    between atoms: _367  and  _370
REMARK  149  A    between atoms: _370  and  _371
REMARK  150  A    between atoms: _376  and  _378
REMARK  151  A    between atoms: _378  and  _379
REMARK  152  A    between atoms: _378  and  _381
REMARK  153  A    between atoms: _381  and  _382
REMARK  154  A    between atoms: _392  and  _394
REMARK  155  A    between atoms: _394  and  _395
REMARK  156  A    between atoms: _394  and  _397
REMARK  157  A    between atoms: _397  and  _398
REMARK  158  A    between atoms: _404  and  _406
REMARK  159  A    between atoms: _406  and  _407
REMARK  160  A    between atoms: _406  and  _409
REMARK  161  A    between atoms: _409  and  _410
REMARK  162  A    between atoms: _413  and  _415
REMARK  163  A    between atoms: _415  and  _416
REMARK  164  A    between atoms: _415  and  _418
REMARK  165  A    between atoms: _418  and  _419
REMARK  166  A    between atoms: _419  and  _420
REMARK  167  A    between atoms: _420  and  _421
REMARK  168  A    between atoms: _430  and  _432
REMARK  169  A    between atoms: _432  and  _433
REMARK  170  A    between atoms: _432  and  _435
REMARK  171  A    between atoms: _435  and  _436
REMARK  172  A    between atoms: _441  and  _443
REMARK  173  A    between atoms: _443  and  _444
REMARK  174  A    between atoms: _443  and  _446
REMARK  175  A    between atoms: _446  and  _447
REMARK  176  A    between atoms: _447  and  _448
REMARK  177  A    between atoms: _448  and  _449
REMARK  178  A    between atoms: _458  and  _460
REMARK  179  A    between atoms: _460  and  _461
REMARK  180  A    between atoms: _464  and  _466
REMARK  181  A    between atoms: _466  and  _467
REMARK  182  A    between atoms: _469  and  _471
REMARK  183  A    between atoms: _471  and  _472
REMARK  184  A    between atoms: _471  and  _474
REMARK  185  A    between atoms: _474  and  _475
REMARK  186  A    between atoms: _485  and  _487
REMARK  187  A    between atoms: _487  and  _488
REMARK  188  A    between atoms: _487  and  _490
REMARK  189  A    between atoms: _490  and  _491
REMARK  190  A    between atoms: _492  and  _494
REMARK  191  A    between atoms: _494  and  _495
REMARK  192  A    between atoms: _498  and  _500
REMARK  193  A    between atoms: _500  and  _501
REMARK  194  A    between atoms: _500  and  _503
REMARK  195  A    between atoms: _503  and  _504
REMARK  196  A    between atoms: _507  and  _509
REMARK  197  A    between atoms: _509  and  _510
REMARK  198  A    between atoms: _509  and  _512
REMARK  199  A    between atoms: _512  and  _513
REMARK  200  A    between atoms: _518  and  _519
REMARK  201  A    between atoms: _521  and  _523
REMARK  202  A    between atoms: _523  and  _524
REMARK  203  A    between atoms: _523  and  _526
REMARK  204  A    between atoms: _526  and  _527
REMARK  205  A    between atoms: _529  and  _531
REMARK  206  A    between atoms: _531  and  _532
REMARK  207  A    between atoms: _531  and  _534
REMARK  208  A    between atoms: _534  and  _535
REMARK  209  A    between atoms: _541  and  _543
REMARK  210  A    between atoms: _543  and  _544
REMARK  211  A    between atoms: _543  and  _546
REMARK  212  A    between atoms: _546  and  _547
REMARK  213  A    between atoms: _550  and  _552
REMARK  214  A    between atoms: _552  and  _553
REMARK  215  A    between atoms: _552  and  _555
REMARK  216  A    between atoms: _555  and  _556
REMARK  217  A    between atoms: _556  and  _557
REMARK  218  A    between atoms: _559  and  _561
REMARK  219  A    between atoms: _561  and  _562
REMARK  220  A    between atoms: _561  and  _564
REMARK  221  A    between atoms: _564  and  _565
REMARK  222  A    between atoms: _567  and  _569
REMARK  223  A    between atoms: _569  and  _570
REMARK  224  A    between atoms: _569  and  _572
REMARK  225  A    between atoms: _572  and  _573
REMARK  226  A    between atoms: _575  and  _577
REMARK  227  A    between atoms: _577  and  _578
REMARK  228  A    between atoms: _577  and  _580
REMARK  229  A    between atoms: _580  and  _581
REMARK  230  A    between atoms: _586  and  _588
REMARK  231  A    between atoms: _588  and  _589
REMARK  232  A    between atoms: _588  and  _591
REMARK  233  A    between atoms: _591  and  _592
REMARK  234  A    between atoms: _597  and  _599
REMARK  235  A    between atoms: _599  and  _600
REMARK  236  A    between atoms: _599  and  _602
REMARK  237  A    between atoms: _602  and  _603
REMARK  238  A    between atoms: _606  and  _608
REMARK  239  A    between atoms: _608  and  _609
REMARK  240  A    between atoms: _612  and  _614
REMARK  241  A    between atoms: _614  and  _615
REMARK  242  A    between atoms: _614  and  _617
REMARK  243  A    between atoms: _617  and  _618
REMARK  244  A    between atoms: _623  and  _625
REMARK  245  A    between atoms: _625  and  _626
REMARK  246  A    between atoms: _625  and  _628
REMARK  247  A    between atoms: _628  and  _629
REMARK  248  A    between atoms: _632  and  _634
REMARK  249  A    between atoms: _634  and  _635
REMARK  250  A    between atoms: _634  and  _637
REMARK  251  A    between atoms: _637  and  _638
REMARK  252  A    between atoms: _643  and  _644
REMARK  253  A    between atoms: _646  and  _648
REMARK  254  A    between atoms: _648  and  _649
REMARK  255  A    between atoms: _648  and  _651
REMARK  256  A    between atoms: _651  and  _652
REMARK  257  A    between atoms: _657  and  _658
REMARK  258  A    between atoms: _660  and  _662
REMARK  259  A    between atoms: _662  and  _663
REMARK  260  A    between atoms: _662  and  _665
REMARK  261  A    between atoms: _668  and  _670
REMARK  262  A    between atoms: _670  and  _671
REMARK  263  A    between atoms: _670  and  _673
REMARK  264  A    between atoms: _673  and  _674
REMARK  265  A    between atoms: _679  and  _681
REMARK  266  A    between atoms: _681  and  _682
REMARK  267  A    between atoms: _685  and  _687
REMARK  268  A    between atoms: _687  and  _688
REMARK  269  A    between atoms: _687  and  _690
REMARK  270  A    between atoms: _690  and  _691
REMARK  271  A    between atoms: _691  and  _692
REMARK  272  A    between atoms: _692  and  _693
REMARK  273  A    between atoms: _702  and  _704
REMARK  274  A    between atoms: _704  and  _705
REMARK  275  A    between atoms: _704  and  _707
REMARK  276  A    between atoms: _707  and  _708
REMARK  277  A    between atoms: _711  and  _713
REMARK  278  A    between atoms: _713  and  _714
REMARK  279  A    between atoms: _713  and  _716
REMARK  280  A    between atoms: _716  and  _717
REMARK  281  A    between atoms: _720  and  _722
REMARK  282  A    between atoms: _722  and  _723
REMARK  283  A    between atoms: _722  and  _725
REMARK  284  A    between atoms: _725  and  _726
REMARK                            x       y       z     vdW  Elec       q    Type
REMARK                         _______ _______ _______ _____ _____    ______ ____
ROOT
ATOM      1  O   HOH     1      -2.155  24.181  12.376  0.00  0.00    +0.000 OA
ENDROOT
TORSDOF 0
REMARK  Name = ../refined-set-2016/1b0h/1b0h_pocket.pdb
REMARK  284 active torsions:
REMARK  status: ('A' for Active; 'I' for Inactive)
REMARK    1  A    between atoms: _1  and  _3
REMARK    2  A    between atoms: _3  and  _4
REMARK    3  A    between atoms: _3  and  _6
REMARK    4  A    between atoms: _6  and  _7
REMARK    5  A    between atoms: _12  and  _14
REMARK    6  A    between atoms: _14  and  _15
REMARK    7  A    between atoms: _17  and  _19
REMARK    8  A    between atoms: _19  and  _20
REMARK    9  A    between atoms: _19  and  _22
REMARK   10  A    between atoms: _22  and  _23
REMARK   11  A    between atoms: _25  and  _27
REMARK   12  A    between atoms: _27  and  _28
REMARK   13  A    between atoms: _27  and  _30
REMARK   14  A    between atoms: _30  and  _31
REMARK   15  A    between atoms: _31  and  _32
REMARK   16  A    between atoms: _37  and  _39
REMARK   17  A    between atoms: _39  and  _40
REMARK   18  A    between atoms: _39  and  _42
REMARK   19  A    between atoms: _42  and  _43
REMARK   20  A    between atoms: _46  and  _48
REMARK   21  A    between atoms: _48  and  _49
REMARK   22  A    between atoms: _48  and  _51
REMARK   23  A    between atoms: _51  and  _52
REMARK   24  A    between atoms: _52  and  _53
REMARK   25  A    between atoms: _56  and  _58
REMARK   26  A    between atoms: _58  and  _59
REMARK   27  A    between atoms: _61  and  _63
REMARK   28  A    between atoms: _63  and  _64
REMARK   29  A    between atoms: _63  and  _66
REMARK   30  A    between atoms: _70  and  _71
REMARK   31  A    between atoms: _76  and  _78
REMARK   32  A    between atoms: _78  and  _79
REMARK   33  A    between atoms: _78  and  _81
REMARK   34  A    between atoms: _81  and  _82
REMARK   35  A    between atoms: _82  and  _83
REMARK   36  A    between atoms: _86  and  _88
REMARK   37  A    between atoms: _88  and  _89
REMARK   38  A    between atoms: _88  and  _91
REMARK   39  A    between atoms: _91  and  _92
REMARK   40  A    between atoms: _94  and  _96
REMARK   41  A    between atoms: _96  and  _97
REMARK   42  A    between atoms: _96  and  _99
REMARK   43  A    between atoms: _99  and  _100
REMARK   44  A    between atoms: _105  and  _107
REMARK   45  A    between atoms: _107  and  _108
REMARK   46  A    between atoms: _107  and  _110
REMARK   47  A    between atoms: _110  and  _111
REMARK   48  A    between atoms: _111  and  _112
REMARK   49  A    between atoms: _112  and  _113
REMARK   50  A    between atoms: _123  and  _124
REMARK   51  A    between atoms: _129  and  _131
REMARK   52  A    between atoms: _131  and  _132
REMARK   53  A    between atoms: _131  and  _134
REMARK   54  A    between atoms: _134  and  _135
REMARK   55  A    between atoms: _140  and  _141
REMARK   56  A    between atoms: _143  and  _145
REMARK   57  A    between atoms: _145  and  _146
REMARK   58  A    between atoms: _145  and  _148
REMARK   59  A    between atoms: _148  and  _149
REMARK   60  A    between atoms: _154  and  _155
REMARK   61  A    between atoms: _157  and  _159
REMARK   62  A    between atoms: _159  and  _160
REMARK   63  A    between atoms: _159  and  _162
REMARK   64  A    between atoms: _165  and  _167
REMARK   65  A    between atoms: _167  and  _168
REMARK   66  A    between atoms: _167  and  _170
REMARK   67  A    between atoms: _170  and  _171
REMARK   68  A    between atoms: _177  and  _178
REMARK   69  A    between atoms: _183  and  _185
REMARK   70  A    between atoms: _185  and  _186
REMARK   71  A    between atoms: _185  and  _188
REMARK   72  A    between atoms: _188  and  _189
REMARK   73  A    between atoms: _191  and  _193
REMARK   74  A    between atoms: _193  and  _194
REMARK   75  A    between atoms: _193  and  _196
REMARK   76  A    between atoms: _196  and  _197
REMARK   77  A    between atoms: _197  and  _198
REMARK   78  A    between atoms: _201  and  _203
REMARK   79  A    between atoms: _203  and  _204
REMARK   80  A    between atoms: _203  and  _206
REMARK   81  A    between atoms: _206  and  _207
REMARK   82  A    between atoms: _212  and  _213
REMARK   83  A    between atoms: _215  and  _217
REMARK   84  A    between atoms: _217  and  _218
REMARK   85  A    between atoms: _217  and  _220
REMARK   86  A    between atoms: _220  and  _221
REMARK   87  A    between atoms: _226  and  _228
REMARK   88  A    between atoms: _228  and  _229
REMARK   89  A    between atoms: _228  and  _231
REMARK   90  A    between atoms: _231  and  _232
REMARK   91  A    between atoms: _237  and  _239
REMARK   92  A    between atoms: _239  and  _240
REMARK   93  A    between atoms: _239  and  _242
REMARK   94  A    between atoms: _242  and  _243
REMARK   95  A    between atoms: _243  and  _244
REMARK   96  A    between atoms: _246  and  _248
REMARK   97  A    between atoms: _248  and  _249
REMARK   98  A    between atoms: _248  and  _251
REMARK   99  A    between atoms: _251  and  _252
REMARK  100  A    between atoms: _257  and  _258
REMARK  101  A    between atoms: _260  and  _262
REMARK  102  A    between atoms: _262  and  _263
REMARK  103  A    between atoms: _262  and  _265
REMARK  104  A    between atoms: _265  and  _266
REMARK  105  A    between atoms: _269  and  _271
REMARK  106  A    between atoms: _271  and  _272
REMARK  107  A    between atoms: _271  and  _274
REMARK  108  A    between atoms: _274  and  _275
REMARK  109  A    between atoms: _275  and  _491
REMARK  110  A    between atoms: _276  and  _278
REMARK  111  A    between atoms: _278  and  _279
REMARK  112  A    between atoms: _278  and  _281
REMARK  113  A    between atoms: _281  and  _282
REMARK  114  A    between atoms: _285  and  _287
REMARK  115  A    between atoms: _287  and  _288
REMARK  116  A    between atoms: _287  and  _290
REMARK  117  A    between atoms: _290  and  _291
REMARK  118  A    between atoms: _296  and  _297
REMARK  119  A    between atoms: _299  and  _301
REMARK  120  A    between atoms: _301  and  _302
REMARK  121  A    between atoms: _301  and  _304
REMARK  122  A    between atoms: _304  and  _305
REMARK  123  A    between atoms: _310  and  _311
REMARK  124  A    between atoms: _313  and  _315
REMARK  125  A    between atoms: _315  and  _316
REMARK  126  A    between atoms: _315  and  _318
REMARK  127  A    between atoms: _318  and  _319
REMARK  128  A    between atoms: _319  and  _320
REMARK  129  A    between atoms: _323  and  _325
REMARK  130  A    between atoms: _325  and  _326
REMARK  131  A    between atoms: _325  and  _328
REMARK  132  A    between atoms: _328  and  _329
REMARK  133  A    between atoms: _334  and  _335
REMARK  134  A    between atoms: _337  and  _339
REMARK  135  A    between atoms: _339  and  _340
REMARK  136  A    between atoms: _339  and  _342
REMARK  137  A    between atoms: _342  and  _343
REMARK  138  A    between atoms: _348  and  _350
REMARK  139  A    between atoms: _350  and  _351
REMARK  140  A    between atoms: _350  and  _353
REMARK  141  A    between atoms: _353  and  _354
REMARK  142  A    between atoms: _356  and  _358
REMARK  143  A    between atoms: _358  and  _359
REMARK  144  A    between atoms: _358  and  _361
REMARK  145  A    between atoms: _361  and  _362
REMARK  146  A    between atoms: _365  and  _367
REMARK  147  A    between atoms: _367  and  _368
REMARK  148  A    between atoms: _367  and  _370
REMARK  149  A    between atoms: _370  and  _371
REMARK  150  A    between atoms: _376  and  _378
REMARK  151  A    between atoms: _378  and  _379
REMARK  152  A    between atoms: _378  and  _381
REMARK  153  A    between atoms: _381  and  _382
REMARK  154  A    between atoms: _392  and  _394
REMARK  155  A    between atoms: _394  and  _395
REMARK  156  A    between atoms: _394  and  _397
REMARK  157  A    between atoms: _397  and  _398
REMARK  158  A    between atoms: _404  and  _406
REMARK  159  A    between atoms: _406  and  _407
REMARK  160  A    between atoms: _406  and  _409
REMARK  161  A    between atoms: _409  and  _410
REMARK  162  A    between atoms: _413  and  _415
REMARK  163  A    between atoms: _415  and  _416
REMARK  164  A    between atoms: _415  and  _418
REMARK  165  A    between atoms: _418  and  _419
REMARK  166  A    between atoms: _419  and  _420
REMARK  167  A    between atoms: _420  and  _421
REMARK  168  A    between atoms: _430  and  _432
REMARK  169  A    between atoms: _432  and  _433
REMARK  170  A    between atoms: _432  and  _435
REMARK  171  A    between atoms: _435  and  _436
REMARK  172  A    between atoms: _441  and  _443
REMARK  173  A    between atoms: _443  and  _444
REMARK  174  A    between atoms: _443  and  _446
REMARK  175  A    between atoms: _446  and  _447
REMARK  176  A    between atoms: _447  and  _448
REMARK  177  A    between atoms: _448  and  _449
REMARK  178  A    between atoms: _458  and  _460
REMARK  179  A    between atoms: _460  and  _461
REMARK  180  A    between atoms: _464  and  _466
REMARK  181  A    between atoms: _466  and  _467
REMARK  182  A    between atoms: _469  and  _471
REMARK  183  A    between atoms: _471  and  _472
REMARK  184  A    between atoms: _471  and  _474
REMARK  185  A    between atoms: _474  and  _475
REMARK  186  A    between atoms: _485  and  _487
REMARK  187  A    between atoms: _487  and  _488
REMARK  188  A    between atoms: _487  and  _490
REMARK  189  A    between atoms: _490  and  _491
REMARK  190  A    between atoms: _492  and  _494
REMARK  191  A    between atoms: _494  and  _495
REMARK  192  A    between atoms: _498  and  _500
REMARK  193  A    between atoms: _500  and  _501
REMARK  194  A    between atoms: _500  and  _503
REMARK  195  A    between atoms: _503  and  _504
REMARK  196  A    between atoms: _507  and  _509
REMARK  197  A    between atoms: _509  and  _510
REMARK  198  A    between atoms: _509  and  _512
REMARK  199  A    between atoms: _512  and  _513
REMARK  200  A    between atoms: _518  and  _519
REMARK  201  A    between atoms: _521  and  _523
REMARK  202  A    between atoms: _523  and  _524
REMARK  203  A    between atoms: _523  and  _526
REMARK  204  A    between atoms: _526  and  _527
REMARK  205  A    between atoms: _529  and  _531
REMARK  206  A    between atoms: _531  and  _532
REMARK  207  A    between atoms: _531  and  _534
REMARK  208  A    between atoms: _534  and  _535
REMARK  209  A    between atoms: _541  and  _543
REMARK  210  A    between atoms: _543  and  _544
REMARK  211  A    between atoms: _543  and  _546
REMARK  212  A    between atoms: _546  and  _547
REMARK  213  A    between atoms: _550  and  _552
REMARK  214  A    between atoms: _552  and  _553
REMARK  215  A    between atoms: _552  and  _555
REMARK  216  A    between atoms: _555  and  _556
REMARK  217  A    between atoms: _556  and  _557
REMARK  218  A    between atoms: _559  and  _561
REMARK  219  A    between atoms: _561  and  _562
REMARK  220  A    between atoms: _561  and  _564
REMARK  221  A    between atoms: _564  and  _565
REMARK  222  A    between atoms: _567  and  _569
REMARK  223  A    between atoms: _569  and  _570
REMARK  224  A    between atoms: _569  and  _572
REMARK  225  A    between atoms: _572  and  _573
REMARK  226  A    between atoms: _575  and  _577
REMARK  227  A    between atoms: _577  and  _578
REMARK  228  A    between atoms: _577  and  _580
REMARK  229  A    between atoms: _580  and  _581
REMARK  230  A    between atoms: _586  and  _588
REMARK  231  A    between atoms: _588  and  _589
REMARK  232  A    between atoms: _588  and  _591
REMARK  233  A    between atoms: _591  and  _592
REMARK  234  A    between atoms: _597  and  _599
REMARK  235  A    between atoms: _599  and  _600
REMARK  236  A    between atoms: _599  and  _602
REMARK  237  A    between atoms: _602  and  _603
REMARK  238  A    between atoms: _606  and  _608
REMARK  239  A    between atoms: _608  and  _609
REMARK  240  A    between atoms: _612  and  _614
REMARK  241  A    between atoms: _614  and  _615
REMARK  242  A    between atoms: _614  and  _617
REMARK  243  A    between atoms: _617  and  _618
REMARK  244  A    between atoms: _623  and  _625
REMARK  245  A    between atoms: _625  and  _626
REMARK  246  A    between atoms: _625  and  _628
REMARK  247  A    between atoms: _628  and  _629
REMARK  248  A    between atoms: _632  and  _634
REMARK  249  A    between atoms: _634  and  _635
REMARK  250  A    between atoms: _634  and  _637
REMARK  251  A    between atoms: _637  and  _638
REMARK  252  A    between atoms: _643  and  _644
REMARK  253  A    between atoms: _646  and  _648
REMARK  254  A    between atoms: _648  and  _649
REMARK  255  A    between atoms: _648  and  _651
REMARK  256  A    between atoms: _651  and  _652
REMARK  257  A    between atoms: _657  and  _658
REMARK  258  A    between atoms: _660  and  _662
REMARK  259  A    between atoms: _662  and  _663
REMARK  260  A    between atoms: _662  and  _665
REMARK  261  A    between atoms: _668  and  _670
REMARK  262  A    between atoms: _670  and  _671
REMARK  263  A    between atoms: _670  and  _673
REMARK  264  A    between atoms: _673  and  _674
REMARK  265  A    between atoms: _679  and  _681
REMARK  266  A    between atoms: _681  and  _682
REMARK  267  A    between atoms: _685  and  _687
REMARK  268  A    between atoms: _687  and  _688
REMARK  269  A    between atoms: _687  and  _690
REMARK  270  A    between atoms: _690  and  _691
REMARK  271  A    between atoms: _691  and  _692
REMARK  272  A    between atoms: _692  and  _693
REMARK  273  A    between atoms: _702  and  _704
REMARK  274  A    between atoms: _704  and  _705
REMARK  275  A    between atoms: _704  and  _707
REMARK  276  A    between atoms: _707  and  _708
REMARK  277  A    between atoms: _711  and  _713
REMARK  278  A    between atoms: _713  and  _714
REMARK  279  A    between atoms: _713  and  _716
REMARK  280  A    between atoms: _716  and  _717
REMARK  281  A    between atoms: _720  and  _722
REMARK  282  A    between atoms: _722  and  _723
REMARK  283  A    between atoms: _722  and  _725
REMARK  284  A    between atoms: _725  and  _726
REMARK                            x       y       z     vdW  Elec       q    Type
REMARK                         _______ _______ _______ _____ _____    ______ ____
ROOT
ATOM      1  O   HOH     1      -8.293  12.980  16.336  0.00  0.00    +0.000 OA
ENDROOT
TORSDOF 0
REMARK  Name = ../refined-set-2016/1b0h/1b0h_pocket.pdb
REMARK  284 active torsions:
REMARK  status: ('A' for Active; 'I' for Inactive)
REMARK    1  A    between atoms: _1  and  _3
REMARK    2  A    between atoms: _3  and  _4
REMARK    3  A    between atoms: _3  and  _6
REMARK    4  A    between atoms: _6  and  _7
REMARK    5  A    between atoms: _12  and  _14
REMARK    6  A    between atoms: _14  and  _15
REMARK    7  A    between atoms: _17  and  _19
REMARK    8  A    between atoms: _19  and  _20
REMARK    9  A    between atoms: _19  and  _22
REMARK   10  A    between atoms: _22  and  _23
REMARK   11  A    between atoms: _25  and  _27
REMARK   12  A    between atoms: _27  and  _28
REMARK   13  A    between atoms: _27  and  _30
REMARK   14  A    between atoms: _30  and  _31
REMARK   15  A    between atoms: _31  and  _32
REMARK   16  A    between atoms: _37  and  _39
REMARK   17  A    between atoms: _39  and  _40
REMARK   18  A    between atoms: _39  and  _42
REMARK   19  A    between atoms: _42  and  _43
REMARK   20  A    between atoms: _46  and  _48
REMARK   21  A    between atoms: _48  and  _49
REMARK   22  A    between atoms: _48  and  _51
REMARK   23  A    between atoms: _51  and  _52
REMARK   24  A    between atoms: _52  and  _53
REMARK   25  A    between atoms: _56  and  _58
REMARK   26  A    between atoms: _58  and  _59
REMARK   27  A    between atoms: _61  and  _63
REMARK   28  A    between atoms: _63  and  _64
REMARK   29  A    between atoms: _63  and  _66
REMARK   30  A    between atoms: _70  and  _71
REMARK   31  A    between atoms: _76  and  _78
REMARK   32  A    between atoms: _78  and  _79
REMARK   33  A    between atoms: _78  and  _81
REMARK   34  A    between atoms: _81  and  _82
REMARK   35  A    between atoms: _82  and  _83
REMARK   36  A    between atoms: _86  and  _88
REMARK   37  A    between atoms: _88  and  _89
REMARK   38  A    between atoms: _88  and  _91
REMARK   39  A    between atoms: _91  and  _92
REMARK   40  A    between atoms: _94  and  _96
REMARK   41  A    between atoms: _96  and  _97
REMARK   42  A    between atoms: _96  and  _99
REMARK   43  A    between atoms: _99  and  _100
REMARK   44  A    between atoms: _105  and  _107
REMARK   45  A    between atoms: _107  and  _108
REMARK   46  A    between atoms: _107  and  _110
REMARK   47  A    between atoms: _110  and  _111
REMARK   48  A    between atoms: _111  and  _112
REMARK   49  A    between atoms: _112  and  _113
REMARK   50  A    between atoms: _123  and  _124
REMARK   51  A    between atoms: _129  and  _131
REMARK   52  A    between atoms: _131  and  _132
REMARK   53  A    between atoms: _131  and  _134
REMARK   54  A    between atoms: _134  and  _135
REMARK   55  A    between atoms: _140  and  _141
REMARK   56  A    between atoms: _143  and  _145
REMARK   57  A    between atoms: _145  and  _146
REMARK   58  A    between atoms: _145  and  _148
REMARK   59  A    between atoms: _148  and  _149
REMARK   60  A    between atoms: _154  and  _155
REMARK   61  A    between atoms: _157  and  _159
REMARK   62  A    between atoms: _159  and  _160
REMARK   63  A    between atoms: _159  and  _162
REMARK   64  A    between atoms: _165  and  _167
REMARK   65  A    between atoms: _167  and  _168
REMARK   66  A    between atoms: _167  and  _170
REMARK   67  A    between atoms: _170  and  _171
REMARK   68  A    between atoms: _177  and  _178
REMARK   69  A    between atoms: _183  and  _185
REMARK   70  A    between atoms: _185  and  _186
REMARK   71  A    between atoms: _185  and  _188
REMARK   72  A    between atoms: _188  and  _189
REMARK   73  A    between atoms: _191  and  _193
REMARK   74  A    between atoms: _193  and  _194
REMARK   75  A    between atoms: _193  and  _196
REMARK   76  A    between atoms: _196  and  _197
REMARK   77  A    between atoms: _197  and  _198
REMARK   78  A    between atoms: _201  and  _203
REMARK   79  A    between atoms: _203  and  _204
REMARK   80  A    between atoms: _203  and  _206
REMARK   81  A    between atoms: _206  and  _207
REMARK   82  A    between atoms: _212  and  _213
REMARK   83  A    between atoms: _215  and  _217
REMARK   84  A    between atoms: _217  and  _218
REMARK   85  A    between atoms: _217  and  _220
REMARK   86  A    between atoms: _220  and  _221
REMARK   87  A    between atoms: _226  and  _228
REMARK   88  A    between atoms: _228  and  _229
REMARK   89  A    between atoms: _228  and  _231
REMARK   90  A    between atoms: _231  and  _232
REMARK   91  A    between atoms: _237  and  _239
REMARK   92  A    between atoms: _239  and  _240
REMARK   93  A    between atoms: _239  and  _242
REMARK   94  A    between atoms: _242  and  _243
REMARK   95  A    between atoms: _243  and  _244
REMARK   96  A    between atoms: _246  and  _248
REMARK   97  A    between atoms: _248  and  _249
REMARK   98  A    between atoms: _248  and  _251
REMARK   99  A    between atoms: _251  and  _252
REMARK  100  A    between atoms: _257  and  _258
REMARK  101  A    between atoms: _260  and  _262
REMARK  102  A    between atoms: _262  and  _263
REMARK  103  A    between atoms: _262  and  _265
REMARK  104  A    between atoms: _265  and  _266
REMARK  105  A    between atoms: _269  and  _271
REMARK  106  A    between atoms: _271  and  _272
REMARK  107  A    between atoms: _271  and  _274
REMARK  108  A    between atoms: _274  and  _275
REMARK  109  A    between atoms: _275  and  _491
REMARK  110  A    between atoms: _276  and  _278
REMARK  111  A    between atoms: _278  and  _279
REMARK  112  A    between atoms: _278  and  _281
REMARK  113  A    between atoms: _281  and  _282
REMARK  114  A    between atoms: _285  and  _287
REMARK  115  A    between atoms: _287  and  _288
REMARK  116  A    between atoms: _287  and  _290
REMARK  117  A    between atoms: _290  and  _291
REMARK  118  A    between atoms: _296  and  _297
REMARK  119  A    between atoms: _299  and  _301
REMARK  120  A    between atoms: _301  and  _302
REMARK  121  A    between atoms: _301  and  _304
REMARK  122  A    between atoms: _304  and  _305
REMARK  123  A    between atoms: _310  and  _311
REMARK  124  A    between atoms: _313  and  _315
REMARK  125  A    between atoms: _315  and  _316
REMARK  126  A    between atoms: _315  and  _318
REMARK  127  A    between atoms: _318  and  _319
REMARK  128  A    between atoms: _319  and  _320
REMARK  129  A    between atoms: _323  and  _325
REMARK  130  A    between atoms: _325  and  _326
REMARK  131  A    between atoms: _325  and  _328
REMARK  132  A    between atoms: _328  and  _329
REMARK  133  A    between atoms: _334  and  _335
REMARK  134  A    between atoms: _337  and  _339
REMARK  135  A    between atoms: _339  and  _340
REMARK  136  A    between atoms: _339  and  _342
REMARK  137  A    between atoms: _342  and  _343
REMARK  138  A    between atoms: _348  and  _350
REMARK  139  A    between atoms: _350  and  _351
REMARK  140  A    between atoms: _350  and  _353
REMARK  141  A    between atoms: _353  and  _354
REMARK  142  A    between atoms: _356  and  _358
REMARK  143  A    between atoms: _358  and  _359
REMARK  144  A    between atoms: _358  and  _361
REMARK  145  A    between atoms: _361  and  _362
REMARK  146  A    between atoms: _365  and  _367
REMARK  147  A    between atoms: _367  and  _368
REMARK  148  A    between atoms: _367  and  _370
REMARK  149  A    between atoms: _370  and  _371
REMARK  150  A    between atoms: _376  and  _378
REMARK  151  A    between atoms: _378  and  _379
REMARK  152  A    between atoms: _378  and  _381
REMARK  153  A    between atoms: _381  and  _382
REMARK  154  A    between atoms: _392  and  _394
REMARK  155  A    between atoms: _394  and  _395
REMARK  156  A    between atoms: _394  and  _397
REMARK  157  A    between atoms: _397  and  _398
REMARK  158  A    between atoms: _404  and  _406
REMARK  159  A    between atoms: _406  and  _407
REMARK  160  A    between atoms: _406  and  _409
REMARK  161  A    between atoms: _409  and  _410
REMARK  162  A    between atoms: _413  and  _415
REMARK  163  A    between atoms: _415  and  _416
REMARK  164  A    between atoms: _415  and  _418
REMARK  165  A    between atoms: _418  and  _419
REMARK  166  A    between atoms: _419  and  _420
REMARK  167  A    between atoms: _420  and  _421
REMARK  168  A    between atoms: _430  and  _432
REMARK  169  A    between atoms: _432  and  _433
REMARK  170  A    between atoms: _432  and  _435
REMARK  171  A    between atoms: _435  and  _436
REMARK  172  A    between atoms: _441  and  _443
REMARK  173  A    between atoms: _443  and  _444
REMARK  174  A    between atoms: _443  and  _446
REMARK  175  A    between atoms: _446  and  _447
REMARK  176  A    between atoms: _447  and  _448
REMARK  177  A    between atoms: _448  and  _449
REMARK  178  A    between atoms: _458  and  _460
REMARK  179  A    between atoms: _460  and  _461
REMARK  180  A    between atoms: _464  and  _466
REMARK  181  A    between atoms: _466  and  _467
REMARK  182  A    between atoms: _469  and  _471
REMARK  183  A    between atoms: _471  and  _472
REMARK  184  A    between atoms: _471  and  _474
REMARK  185  A    between atoms: _474  and  _475
REMARK  186  A    between atoms: _485  and  _487
REMARK  187  A    between atoms: _487  and  _488
REMARK  188  A    between atoms: _487  and  _490
REMARK  189  A    between atoms: _490  and  _491
REMARK  190  A    between atoms: _492  and  _494
REMARK  191  A    between atoms: _494  and  _495
REMARK  192  A    between atoms: _498  and  _500
REMARK  193  A    between atoms: _500  and  _501
REMARK  194  A    between atoms: _500  and  _503
REMARK  195  A    between atoms: _503  and  _504
REMARK  196  A    between atoms: _507  and  _509
REMARK  197  A    between atoms: _509  and  _510
REMARK  198  A    between atoms: _509  and  _512
REMARK  199  A    between atoms: _512  and  _513
REMARK  200  A    between atoms: _518  and  _519
REMARK  201  A    between atoms: _521  and  _523
REMARK  202  A    between atoms: _523  and  _524
REMARK  203  A    between atoms: _523  and  _526
REMARK  204  A    between atoms: _526  and  _527
REMARK  205  A    between atoms: _529  and  _531
REMARK  206  A    between atoms: _531  and  _532
REMARK  207  A    between atoms: _531  and  _534
REMARK  208  A    between atoms: _534  and  _535
REMARK  209  A    between atoms: _541  and  _543
REMARK  210  A    between atoms: _543  and  _544
REMARK  211  A    between atoms: _543  and  _546
REMARK  212  A    between atoms: _546  and  _547
REMARK  213  A    between atoms: _550  and  _552
REMARK  214  A    between atoms: _552  and  _553
REMARK  215  A    between atoms: _552  and  _555
REMARK  216  A    between atoms: _555  and  _556
REMARK  217  A    between atoms: _556  and  _557
REMARK  218  A    between atoms: _559  and  _561
REMARK  219  A    between atoms: _561  and  _562
REMARK  220  A    between atoms: _561  and  _564
REMARK  221  A    between atoms: _564  and  _565
REMARK  222  A    between atoms: _567  and  _569
REMARK  223  A    between atoms: _569  and  _570
REMARK  224  A    between atoms: _569  and  _572
REMARK  225  A    between atoms: _572  and  _573
REMARK  226  A    between atoms: _575  and  _577
REMARK  227  A    between atoms: _577  and  _578
REMARK  228  A    between atoms: _577  and  _580
REMARK  229  A    between atoms: _580  and  _581
REMARK  230  A    between atoms: _586  and  _588
REMARK  231  A    between atoms: _588  and  _589
REMARK  232  A    between atoms: _588  and  _591
REMARK  233  A    between atoms: _591  and  _592
REMARK  234  A    between atoms: _597  and  _599
REMARK  235  A    between atoms: _599  and  _600
REMARK  236  A    between atoms: _599  and  _602
REMARK  237  A    between atoms: _602  and  _603
REMARK  238  A    between atoms: _606  and  _608
REMARK  239  A    between atoms: _608  and  _609
REMARK  240  A    between atoms: _612  and  _614
REMARK  241  A    between atoms: _614  and  _615
REMARK  242  A    between atoms: _614  and  _617
REMARK  243  A    between atoms: _617  and  _618
REMARK  244  A    between atoms: _623  and  _625
REMARK  245  A    between atoms: _625  and  _626
REMARK  246  A    between atoms: _625  and  _628
REMARK  247  A    between atoms: _628  and  _629
REMARK  248  A    between atoms: _632  and  _634
REMARK  249  A    between atoms: _634  and  _635
REMARK  250  A    between atoms: _634  and  _637
REMARK  251  A    between atoms: _637  and  _638
REMARK  252  A    between atoms: _643  and  _644
REMARK  253  A    between atoms: _646  and  _648
REMARK  254  A    between atoms: _648  and  _649
REMARK  255  A    between atoms: _648  and  _651
REMARK  256  A    between atoms: _651  and  _652
REMARK  257  A    between atoms: _657  and  _658
REMARK  258  A    between atoms: _660  and  _662
REMARK  259  A    between atoms: _662  and  _663
REMARK  260  A    between atoms: _662  and  _665
REMARK  261  A    between atoms: _668  and  _670
REMARK  262  A    between atoms: _670  and  _671
REMARK  263  A    between atoms: _670  and  _673
REMARK  264  A    between atoms: _673  and  _674
REMARK  265  A    between atoms: _679  and  _681
REMARK  266  A    between atoms: _681  and  _682
REMARK  267  A    between atoms: _685  and  _687
REMARK  268  A    between atoms: _687  and  _688
REMARK  269  A    between atoms: _687  and  _690
REMARK  270  A    between atoms: _690  and  _691
REMARK  271  A    between atoms: _691  and  _692
REMARK  272  A    between atoms: _692  and  _693
REMARK  273  A    between atoms: _702  and  _704
REMARK  274  A    between atoms: _704  and  _705
REMARK  275  A    between atoms: _704  and  _707
REMARK  276  A    between atoms: _707  and  _708
REMARK  277  A    between atoms: _711  and  _713
REMARK  278  A    between atoms: _713  and  _714
REMARK  279  A    between atoms: _713  and  _716
REMARK  280  A    between atoms: _716  and  _717
REMARK  281  A    between atoms: _720  and  _722
REMARK  282  A    between atoms: _722  and  _723
REMARK  283  A    between atoms: _722  and  _725
REMARK  284  A    between atoms: _725  and  _726
REMARK                            x       y       z     vdW  Elec       q    Type
REMARK                         _______ _______ _______ _____ _____    ______ ____
ROOT
ATOM      1  O   HOH     1      -7.526  16.494  15.442  0.00  0.00    +0.000 OA
ENDROOT
TORSDOF 0
REMARK  Name = ../refined-set-2016/1b0h/1b0h_pocket.pdb
REMARK  284 active torsions:
REMARK  status: ('A' for Active; 'I' for Inactive)
REMARK    1  A    between atoms: _1  and  _3
REMARK    2  A    between atoms: _3  and  _4
REMARK    3  A    between atoms: _3  and  _6
REMARK    4  A    between atoms: _6  and  _7
REMARK    5  A    between atoms: _12  and  _14
REMARK    6  A    between atoms: _14  and  _15
REMARK    7  A    between atoms: _17  and  _19
REMARK    8  A    between atoms: _19  and  _20
REMARK    9  A    between atoms: _19  and  _22
REMARK   10  A    between atoms: _22  and  _23
REMARK   11  A    between atoms: _25  and  _27
REMARK   12  A    between atoms: _27  and  _28
REMARK   13  A    between atoms: _27  and  _30
REMARK   14  A    between atoms: _30  and  _31
REMARK   15  A    between atoms: _31  and  _32
REMARK   16  A    between atoms: _37  and  _39
REMARK   17  A    between atoms: _39  and  _40
REMARK   18  A    between atoms: _39  and  _42
REMARK   19  A    between atoms: _42  and  _43
REMARK   20  A    between atoms: _46  and  _48
REMARK   21  A    between atoms: _48  and  _49
REMARK   22  A    between atoms: _48  and  _51
REMARK   23  A    between atoms: _51  and  _52
REMARK   24  A    between atoms: _52  and  _53
REMARK   25  A    between atoms: _56  and  _58
REMARK   26  A    between atoms: _58  and  _59
REMARK   27  A    between atoms: _61  and  _63
REMARK   28  A    between atoms: _63  and  _64
REMARK   29  A    between atoms: _63  and  _66
REMARK   30  A    between atoms: _70  and  _71
REMARK   31  A    between atoms: _76  and  _78
REMARK   32  A    between atoms: _78  and  _79
REMARK   33  A    between atoms: _78  and  _81
REMARK   34  A    between atoms: _81  and  _82
REMARK   35  A    between atoms: _82  and  _83
REMARK   36  A    between atoms: _86  and  _88
REMARK   37  A    between atoms: _88  and  _89
REMARK   38  A    between atoms: _88  and  _91
REMARK   39  A    between atoms: _91  and  _92
REMARK   40  A    between atoms: _94  and  _96
REMARK   41  A    between atoms: _96  and  _97
REMARK   42  A    between atoms: _96  and  _99
REMARK   43  A    between atoms: _99  and  _100
REMARK   44  A    between atoms: _105  and  _107
REMARK   45  A    between atoms: _107  and  _108
REMARK   46  A    between atoms: _107  and  _110
REMARK   47  A    between atoms: _110  and  _111
REMARK   48  A    between atoms: _111  and  _112
REMARK   49  A    between atoms: _112  and  _113
REMARK   50  A    between atoms: _123  and  _124
REMARK   51  A    between atoms: _129  and  _131
REMARK   52  A    between atoms: _131  and  _132
REMARK   53  A    between atoms: _131  and  _134
REMARK   54  A    between atoms: _134  and  _135
REMARK   55  A    between atoms: _140  and  _141
REMARK   56  A    between atoms: _143  and  _145
REMARK   57  A    between atoms: _145  and  _146
REMARK   58  A    between atoms: _145  and  _148
REMARK   59  A    between atoms: _148  and  _149
REMARK   60  A    between atoms: _154  and  _155
REMARK   61  A    between atoms: _157  and  _159
REMARK   62  A    between atoms: _159  and  _160
REMARK   63  A    between atoms: _159  and  _162
REMARK   64  A    between atoms: _165  and  _167
REMARK   65  A    between atoms: _167  and  _168
REMARK   66  A    between atoms: _167  and  _170
REMARK   67  A    between atoms: _170  and  _171
REMARK   68  A    between atoms: _177  and  _178
REMARK   69  A    between atoms: _183  and  _185
REMARK   70  A    between atoms: _185  and  _186
REMARK   71  A    between atoms: _185  and  _188
REMARK   72  A    between atoms: _188  and  _189
REMARK   73  A    between atoms: _191  and  _193
REMARK   74  A    between atoms: _193  and  _194
REMARK   75  A    between atoms: _193  and  _196
REMARK   76  A    between atoms: _196  and  _197
REMARK   77  A    between atoms: _197  and  _198
REMARK   78  A    between atoms: _201  and  _203
REMARK   79  A    between atoms: _203  and  _204
REMARK   80  A    between atoms: _203  and  _206
REMARK   81  A    between atoms: _206  and  _207
REMARK   82  A    between atoms: _212  and  _213
REMARK   83  A    between atoms: _215  and  _217
REMARK   84  A    between atoms: _217  and  _218
REMARK   85  A    between atoms: _217  and  _220
REMARK   86  A    between atoms: _220  and  _221
REMARK   87  A    between atoms: _226  and  _228
REMARK   88  A    between atoms: _228  and  _229
REMARK   89  A    between atoms: _228  and  _231
REMARK   90  A    between atoms: _231  and  _232
REMARK   91  A    between atoms: _237  and  _239
REMARK   92  A    between atoms: _239  and  _240
REMARK   93  A    between atoms: _239  and  _242
REMARK   94  A    between atoms: _242  and  _243
REMARK   95  A    between atoms: _243  and  _244
REMARK   96  A    between atoms: _246  and  _248
REMARK   97  A    between atoms: _248  and  _249
REMARK   98  A    between atoms: _248  and  _251
REMARK   99  A    between atoms: _251  and  _252
REMARK  100  A    between atoms: _257  and  _258
REMARK  101  A    between atoms: _260  and  _262
REMARK  102  A    between atoms: _262  and  _263
REMARK  103  A    between atoms: _262  and  _265
REMARK  104  A    between atoms: _265  and  _266
REMARK  105  A    between atoms: _269  and  _271
REMARK  106  A    between atoms: _271  and  _272
REMARK  107  A    between atoms: _271  and  _274
REMARK  108  A    between atoms: _274  and  _275
REMARK  109  A    between atoms: _275  and  _491
REMARK  110  A    between atoms: _276  and  _278
REMARK  111  A    between atoms: _278  and  _279
REMARK  112  A    between atoms: _278  and  _281
REMARK  113  A    between atoms: _281  and  _282
REMARK  114  A    between atoms: _285  and  _287
REMARK  115  A    between atoms: _287  and  _288
REMARK  116  A    between atoms: _287  and  _290
REMARK  117  A    between atoms: _290  and  _291
REMARK  118  A    between atoms: _296  and  _297
REMARK  119  A    between atoms: _299  and  _301
REMARK  120  A    between atoms: _301  and  _302
REMARK  121  A    between atoms: _301  and  _304
REMARK  122  A    between atoms: _304  and  _305
REMARK  123  A    between atoms: _310  and  _311
REMARK  124  A    between atoms: _313  and  _315
REMARK  125  A    between atoms: _315  and  _316
REMARK  126  A    between atoms: _315  and  _318
REMARK  127  A    between atoms: _318  and  _319
REMARK  128  A    between atoms: _319  and  _320
REMARK  129  A    between atoms: _323  and  _325
REMARK  130  A    between atoms: _325  and  _326
REMARK  131  A    between atoms: _325  and  _328
REMARK  132  A    between atoms: _328  and  _329
REMARK  133  A    between atoms: _334  and  _335
REMARK  134  A    between atoms: _337  and  _339
REMARK  135  A    between atoms: _339  and  _340
REMARK  136  A    between atoms: _339  and  _342
REMARK  137  A    between atoms: _342  and  _343
REMARK  138  A    between atoms: _348  and  _350
REMARK  139  A    between atoms: _350  and  _351
REMARK  140  A    between atoms: _350  and  _353
REMARK  141  A    between atoms: _353  and  _354
REMARK  142  A    between atoms: _356  and  _358
REMARK  143  A    between atoms: _358  and  _359
REMARK  144  A    between atoms: _358  and  _361
REMARK  145  A    between atoms: _361  and  _362
REMARK  146  A    between atoms: _365  and  _367
REMARK  147  A    between atoms: _367  and  _368
REMARK  148  A    between atoms: _367  and  _370
REMARK  149  A    between atoms: _370  and  _371
REMARK  150  A    between atoms: _376  and  _378
REMARK  151  A    between atoms: _378  and  _379
REMARK  152  A    between atoms: _378  and  _381
REMARK  153  A    between atoms: _381  and  _382
REMARK  154  A    between atoms: _392  and  _394
REMARK  155  A    between atoms: _394  and  _395
REMARK  156  A    between atoms: _394  and  _397
REMARK  157  A    between atoms: _397  and  _398
REMARK  158  A    between atoms: _404  and  _406
REMARK  159  A    between atoms: _406  and  _407
REMARK  160  A    between atoms: _406  and  _409
REMARK  161  A    between atoms: _409  and  _410
REMARK  162  A    between atoms: _413  and  _415
REMARK  163  A    between atoms: _415  and  _416
REMARK  164  A    between atoms: _415  and  _418
REMARK  165  A    between atoms: _418  and  _419
REMARK  166  A    between atoms: _419  and  _420
REMARK  167  A    between atoms: _420  and  _421
REMARK  168  A    between atoms: _430  and  _432
REMARK  169  A    between atoms: _432  and  _433
REMARK  170  A    between atoms: _432  and  _435
REMARK  171  A    between atoms: _435  and  _436
REMARK  172  A    between atoms: _441  and  _443
REMARK  173  A    between atoms: _443  and  _444
REMARK  174  A    between atoms: _443  and  _446
REMARK  175  A    between atoms: _446  and  _447
REMARK  176  A    between atoms: _447  and  _448
REMARK  177  A    between atoms: _448  and  _449
REMARK  178  A    between atoms: _458  and  _460
REMARK  179  A    between atoms: _460  and  _461
REMARK  180  A    between atoms: _464  and  _466
REMARK  181  A    between atoms: _466  and  _467
REMARK  182  A    between atoms: _469  and  _471
REMARK  183  A    between atoms: _471  and  _472
REMARK  184  A    between atoms: _471  and  _474
REMARK  185  A    between atoms: _474  and  _475
REMARK  186  A    between atoms: _485  and  _487
REMARK  187  A    between atoms: _487  and  _488
REMARK  188  A    between atoms: _487  and  _490
REMARK  189  A    between atoms: _490  and  _491
REMARK  190  A    between atoms: _492  and  _494
REMARK  191  A    between atoms: _494  and  _495
REMARK  192  A    between atoms: _498  and  _500
REMARK  193  A    between atoms: _500  and  _501
REMARK  194  A    between atoms: _500  and  _503
REMARK  195  A    between atoms: _503  and  _504
REMARK  196  A    between atoms: _507  and  _509
REMARK  197  A    between atoms: _509  and  _510
REMARK  198  A    between atoms: _509  and  _512
REMARK  199  A    between atoms: _512  and  _513
REMARK  200  A    between atoms: _518  and  _519
REMARK  201  A    between atoms: _521  and  _523
REMARK  202  A    between atoms: _523  and  _524
REMARK  203  A    between atoms: _523  and  _526
REMARK  204  A    between atoms: _526  and  _527
REMARK  205  A    between atoms: _529  and  _531
REMARK  206  A    between atoms: _531  and  _532
REMARK  207  A    between atoms: _531  and  _534
REMARK  208  A    between atoms: _534  and  _535
REMARK  209  A    between atoms: _541  and  _543
REMARK  210  A    between atoms: _543  and  _544
REMARK  211  A    between atoms: _543  and  _546
REMARK  212  A    between atoms: _546  and  _547
REMARK  213  A    between atoms: _550  and  _552
REMARK  214  A    between atoms: _552  and  _553
REMARK  215  A    between atoms: _552  and  _555
REMARK  216  A    between atoms: _555  and  _556
REMARK  217  A    between atoms: _556  and  _557
REMARK  218  A    between atoms: _559  and  _561
REMARK  219  A    between atoms: _561  and  _562
REMARK  220  A    between atoms: _561  and  _564
REMARK  221  A    between atoms: _564  and  _565
REMARK  222  A    between atoms: _567  and  _569
REMARK  223  A    between atoms: _569  and  _570
REMARK  224  A    between atoms: _569  and  _572
REMARK  225  A    between atoms: _572  and  _573
REMARK  226  A    between atoms: _575  and  _577
REMARK  227  A    between atoms: _577  and  _578
REMARK  228  A    between atoms: _577  and  _580
REMARK  229  A    between atoms: _580  and  _581
REMARK  230  A    between atoms: _586  and  _588
REMARK  231  A    between atoms: _588  and  _589
REMARK  232  A    between atoms: _588  and  _591
REMARK  233  A    between atoms: _591  and  _592
REMARK  234  A    between atoms: _597  and  _599
REMARK  235  A    between atoms: _599  and  _600
REMARK  236  A    between atoms: _599  and  _602
REMARK  237  A    between atoms: _602  and  _603
REMARK  238  A    between atoms: _606  and  _608
REMARK  239  A    between atoms: _608  and  _609
REMARK  240  A    between atoms: _612  and  _614
REMARK  241  A    between atoms: _614  and  _615
REMARK  242  A    between atoms: _614  and  _617
REMARK  243  A    between atoms: _617  and  _618
REMARK  244  A    between atoms: _623  and  _625
REMARK  245  A    between atoms: _625  and  _626
REMARK  246  A    between atoms: _625  and  _628
REMARK  247  A    between atoms: _628  and  _629
REMARK  248  A    between atoms: _632  and  _634
REMARK  249  A    between atoms: _634  and  _635
REMARK  250  A    between atoms: _634  and  _637
REMARK  251  A    between atoms: _637  and  _638
REMARK  252  A    between atoms: _643  and  _644
REMARK  253  A    between atoms: _646  and  _648
REMARK  254  A    between atoms: _648  and  _649
REMARK  255  A    between atoms: _648  and  _651
REMARK  256  A    between atoms: _651  and  _652
REMARK  257  A    between atoms: _657  and  _658
REMARK  258  A    between atoms: _660  and  _662
REMARK  259  A    between atoms: _662  and  _663
REMARK  260  A    between atoms: _662  and  _665
REMARK  261  A    between atoms: _668  and  _670
REMARK  262  A    between atoms: _670  and  _671
REMARK  263  A    between atoms: _670  and  _673
REMARK  264  A    between atoms: _673  and  _674
REMARK  265  A    between atoms: _679  and  _681
REMARK  266  A    between atoms: _681  and  _682
REMARK  267  A    between atoms: _685  and  _687
REMARK  268  A    between atoms: _687  and  _688
REMARK  269  A    between atoms: _687  and  _690
REMARK  270  A    between atoms: _690  and  _691
REMARK  271  A    between atoms: _691  and  _692
REMARK  272  A    between atoms: _692  and  _693
REMARK  273  A    between atoms: _702  and  _704
REMARK  274  A    between atoms: _704  and  _705
REMARK  275  A    between atoms: _704  and  _707
REMARK  276  A    between atoms: _707  and  _708
REMARK  277  A    between atoms: _711  and  _713
REMARK  278  A    between atoms: _713  and  _714
REMARK  279  A    between atoms: _713  and  _716
REMARK  280  A    between atoms: _716  and  _717
REMARK  281  A    between atoms: _720  and  _722
REMARK  282  A    between atoms: _722  and  _723
REMARK  283  A    between atoms: _722  and  _725
REMARK  284  A    between atoms: _725  and  _726
REMARK                            x       y       z     vdW  Elec       q    Type
REMARK                         _______ _______ _______ _____ _____    ______ ____
ROOT
ATOM      1  O   HOH     1      -8.524  15.386  16.871  0.00  0.00    +0.000 OA
ENDROOT
TORSDOF 0
REMARK  Name = ../refined-set-2016/1b0h/1b0h_pocket.pdb
REMARK  284 active torsions:
REMARK  status: ('A' for Active; 'I' for Inactive)
REMARK    1  A    between atoms: _1  and  _3
REMARK    2  A    between atoms: _3  and  _4
REMARK    3  A    between atoms: _3  and  _6
REMARK    4  A    between atoms: _6  and  _7
REMARK    5  A    between atoms: _12  and  _14
REMARK    6  A    between atoms: _14  and  _15
REMARK    7  A    between atoms: _17  and  _19
REMARK    8  A    between atoms: _19  and  _20
REMARK    9  A    between atoms: _19  and  _22
REMARK   10  A    between atoms: _22  and  _23
REMARK   11  A    between atoms: _25  and  _27
REMARK   12  A    between atoms: _27  and  _28
REMARK   13  A    between atoms: _27  and  _30
REMARK   14  A    between atoms: _30  and  _31
REMARK   15  A    between atoms: _31  and  _32
REMARK   16  A    between atoms: _37  and  _39
REMARK   17  A    between atoms: _39  and  _40
REMARK   18  A    between atoms: _39  and  _42
REMARK   19  A    between atoms: _42  and  _43
REMARK   20  A    between atoms: _46  and  _48
REMARK   21  A    between atoms: _48  and  _49
REMARK   22  A    between atoms: _48  and  _51
REMARK   23  A    between atoms: _51  and  _52
REMARK   24  A    between atoms: _52  and  _53
REMARK   25  A    between atoms: _56  and  _58
REMARK   26  A    between atoms: _58  and  _59
REMARK   27  A    between atoms: _61  and  _63
REMARK   28  A    between atoms: _63  and  _64
REMARK   29  A    between atoms: _63  and  _66
REMARK   30  A    between atoms: _70  and  _71
REMARK   31  A    between atoms: _76  and  _78
REMARK   32  A    between atoms: _78  and  _79
REMARK   33  A    between atoms: _78  and  _81
REMARK   34  A    between atoms: _81  and  _82
REMARK   35  A    between atoms: _82  and  _83
REMARK   36  A    between atoms: _86  and  _88
REMARK   37  A    between atoms: _88  and  _89
REMARK   38  A    between atoms: _88  and  _91
REMARK   39  A    between atoms: _91  and  _92
REMARK   40  A    between atoms: _94  and  _96
REMARK   41  A    between atoms: _96  and  _97
REMARK   42  A    between atoms: _96  and  _99
REMARK   43  A    between atoms: _99  and  _100
REMARK   44  A    between atoms: _105  and  _107
REMARK   45  A    between atoms: _107  and  _108
REMARK   46  A    between atoms: _107  and  _110
REMARK   47  A    between atoms: _110  and  _111
REMARK   48  A    between atoms: _111  and  _112
REMARK   49  A    between atoms: _112  and  _113
REMARK   50  A    between atoms: _123  and  _124
REMARK   51  A    between atoms: _129  and  _131
REMARK   52  A    between atoms: _131  and  _132
REMARK   53  A    between atoms: _131  and  _134
REMARK   54  A    between atoms: _134  and  _135
REMARK   55  A    between atoms: _140  and  _141
REMARK   56  A    between atoms: _143  and  _145
REMARK   57  A    between atoms: _145  and  _146
REMARK   58  A    between atoms: _145  and  _148
REMARK   59  A    between atoms: _148  and  _149
REMARK   60  A    between atoms: _154  and  _155
REMARK   61  A    between atoms: _157  and  _159
REMARK   62  A    between atoms: _159  and  _160
REMARK   63  A    between atoms: _159  and  _162
REMARK   64  A    between atoms: _165  and  _167
REMARK   65  A    between atoms: _167  and  _168
REMARK   66  A    between atoms: _167  and  _170
REMARK   67  A    between atoms: _170  and  _171
REMARK   68  A    between atoms: _177  and  _178
REMARK   69  A    between atoms: _183  and  _185
REMARK   70  A    between atoms: _185  and  _186
REMARK   71  A    between atoms: _185  and  _188
REMARK   72  A    between atoms: _188  and  _189
REMARK   73  A    between atoms: _191  and  _193
REMARK   74  A    between atoms: _193  and  _194
REMARK   75  A    between atoms: _193  and  _196
REMARK   76  A    between atoms: _196  and  _197
REMARK   77  A    between atoms: _197  and  _198
REMARK   78  A    between atoms: _201  and  _203
REMARK   79  A    between atoms: _203  and  _204
REMARK   80  A    between atoms: _203  and  _206
REMARK   81  A    between atoms: _206  and  _207
REMARK   82  A    between atoms: _212  and  _213
REMARK   83  A    between atoms: _215  and  _217
REMARK   84  A    between atoms: _217  and  _218
REMARK   85  A    between atoms: _217  and  _220
REMARK   86  A    between atoms: _220  and  _221
REMARK   87  A    between atoms: _226  and  _228
REMARK   88  A    between atoms: _228  and  _229
REMARK   89  A    between atoms: _228  and  _231
REMARK   90  A    between atoms: _231  and  _232
REMARK   91  A    between atoms: _237  and  _239
REMARK   92  A    between atoms: _239  and  _240
REMARK   93  A    between atoms: _239  and  _242
REMARK   94  A    between atoms: _242  and  _243
REMARK   95  A    between atoms: _243  and  _244
REMARK   96  A    between atoms: _246  and  _248
REMARK   97  A    between atoms: _248  and  _249
REMARK   98  A    between atoms: _248  and  _251
REMARK   99  A    between atoms: _251  and  _252
REMARK  100  A    between atoms: _257  and  _258
REMARK  101  A    between atoms: _260  and  _262
REMARK  102  A    between atoms: _262  and  _263
REMARK  103  A    between atoms: _262  and  _265
REMARK  104  A    between atoms: _265  and  _266
REMARK  105  A    between atoms: _269  and  _271
REMARK  106  A    between atoms: _271  and  _272
REMARK  107  A    between atoms: _271  and  _274
REMARK  108  A    between atoms: _274  and  _275
REMARK  109  A    between atoms: _275  and  _491
REMARK  110  A    between atoms: _276  and  _278
REMARK  111  A    between atoms: _278  and  _279
REMARK  112  A    between atoms: _278  and  _281
REMARK  113  A    between atoms: _281  and  _282
REMARK  114  A    between atoms: _285  and  _287
REMARK  115  A    between atoms: _287  and  _288
REMARK  116  A    between atoms: _287  and  _290
REMARK  117  A    between atoms: _290  and  _291
REMARK  118  A    between atoms: _296  and  _297
REMARK  119  A    between atoms: _299  and  _301
REMARK  120  A    between atoms: _301  and  _302
REMARK  121  A    between atoms: _301  and  _304
REMARK  122  A    between atoms: _304  and  _305
REMARK  123  A    between atoms: _310  and  _311
REMARK  124  A    between atoms: _313  and  _315
REMARK  125  A    between atoms: _315  and  _316
REMARK  126  A    between atoms: _315  and  _318
REMARK  127  A    between atoms: _318  and  _319
REMARK  128  A    between atoms: _319  and  _320
REMARK  129  A    between atoms: _323  and  _325
REMARK  130  A    between atoms: _325  and  _326
REMARK  131  A    between atoms: _325  and  _328
REMARK  132  A    between atoms: _328  and  _329
REMARK  133  A    between atoms: _334  and  _335
REMARK  134  A    between atoms: _337  and  _339
REMARK  135  A    between atoms: _339  and  _340
REMARK  136  A    between atoms: _339  and  _342
REMARK  137  A    between atoms: _342  and  _343
REMARK  138  A    between atoms: _348  and  _350
REMARK  139  A    between atoms: _350  and  _351
REMARK  140  A    between atoms: _350  and  _353
REMARK  141  A    between atoms: _353  and  _354
REMARK  142  A    between atoms: _356  and  _358
REMARK  143  A    between atoms: _358  and  _359
REMARK  144  A    between atoms: _358  and  _361
REMARK  145  A    between atoms: _361  and  _362
REMARK  146  A    between atoms: _365  and  _367
REMARK  147  A    between atoms: _367  and  _368
REMARK  148  A    between atoms: _367  and  _370
REMARK  149  A    between atoms: _370  and  _371
REMARK  150  A    between atoms: _376  and  _378
REMARK  151  A    between atoms: _378  and  _379
REMARK  152  A    between atoms: _378  and  _381
REMARK  153  A    between atoms: _381  and  _382
REMARK  154  A    between atoms: _392  and  _394
REMARK  155  A    between atoms: _394  and  _395
REMARK  156  A    between atoms: _394  and  _397
REMARK  157  A    between atoms: _397  and  _398
REMARK  158  A    between atoms: _404  and  _406
REMARK  159  A    between atoms: _406  and  _407
REMARK  160  A    between atoms: _406  and  _409
REMARK  161  A    between atoms: _409  and  _410
REMARK  162  A    between atoms: _413  and  _415
REMARK  163  A    between atoms: _415  and  _416
REMARK  164  A    between atoms: _415  and  _418
REMARK  165  A    between atoms: _418  and  _419
REMARK  166  A    between atoms: _419  and  _420
REMARK  167  A    between atoms: _420  and  _421
REMARK  168  A    between atoms: _430  and  _432
REMARK  169  A    between atoms: _432  and  _433
REMARK  170  A    between atoms: _432  and  _435
REMARK  171  A    between atoms: _435  and  _436
REMARK  172  A    between atoms: _441  and  _443
REMARK  173  A    between atoms: _443  and  _444
REMARK  174  A    between atoms: _443  and  _446
REMARK  175  A    between atoms: _446  and  _447
REMARK  176  A    between atoms: _447  and  _448
REMARK  177  A    between atoms: _448  and  _449
REMARK  178  A    between atoms: _458  and  _460
REMARK  179  A    between atoms: _460  and  _461
REMARK  180  A    between atoms: _464  and  _466
REMARK  181  A    between atoms: _466  and  _467
REMARK  182  A    between atoms: _469  and  _471
REMARK  183  A    between atoms: _471  and  _472
REMARK  184  A    between atoms: _471  and  _474
REMARK  185  A    between atoms: _474  and  _475
REMARK  186  A    between atoms: _485  and  _487
REMARK  187  A    between atoms: _487  and  _488
REMARK  188  A    between atoms: _487  and  _490
REMARK  189  A    between atoms: _490  and  _491
REMARK  190  A    between atoms: _492  and  _494
REMARK  191  A    between atoms: _494  and  _495
REMARK  192  A    between atoms: _498  and  _500
REMARK  193  A    between atoms: _500  and  _501
REMARK  194  A    between atoms: _500  and  _503
REMARK  195  A    between atoms: _503  and  _504
REMARK  196  A    between atoms: _507  and  _509
REMARK  197  A    between atoms: _509  and  _510
REMARK  198  A    between atoms: _509  and  _512
REMARK  199  A    between atoms: _512  and  _513
REMARK  200  A    between atoms: _518  and  _519
REMARK  201  A    between atoms: _521  and  _523
REMARK  202  A    between atoms: _523  and  _524
REMARK  203  A    between atoms: _523  and  _526
REMARK  204  A    between atoms: _526  and  _527
REMARK  205  A    between atoms: _529  and  _531
REMARK  206  A    between atoms: _531  and  _532
REMARK  207  A    between atoms: _531  and  _534
REMARK  208  A    between atoms: _534  and  _535
REMARK  209  A    between atoms: _541  and  _543
REMARK  210  A    between atoms: _543  and  _544
REMARK  211  A    between atoms: _543  and  _546
REMARK  212  A    between atoms: _546  and  _547
REMARK  213  A    between atoms: _550  and  _552
REMARK  214  A    between atoms: _552  and  _553
REMARK  215  A    between atoms: _552  and  _555
REMARK  216  A    between atoms: _555  and  _556
REMARK  217  A    between atoms: _556  and  _557
REMARK  218  A    between atoms: _559  and  _561
REMARK  219  A    between atoms: _561  and  _562
REMARK  220  A    between atoms: _561  and  _564
REMARK  221  A    between atoms: _564  and  _565
REMARK  222  A    between atoms: _567  and  _569
REMARK  223  A    between atoms: _569  and  _570
REMARK  224  A    between atoms: _569  and  _572
REMARK  225  A    between atoms: _572  and  _573
REMARK  226  A    between atoms: _575  and  _577
REMARK  227  A    between atoms: _577  and  _578
REMARK  228  A    between atoms: _577  and  _580
REMARK  229  A    between atoms: _580  and  _581
REMARK  230  A    between atoms: _586  and  _588
REMARK  231  A    between atoms: _588  and  _589
REMARK  232  A    between atoms: _588  and  _591
REMARK  233  A    between atoms: _591  and  _592
REMARK  234  A    between atoms: _597  and  _599
REMARK  235  A    between atoms: _599  and  _600
REMARK  236  A    between atoms: _599  and  _602
REMARK  237  A    between atoms: _602  and  _603
REMARK  238  A    between atoms: _606  and  _608
REMARK  239  A    between atoms: _608  and  _609
REMARK  240  A    between atoms: _612  and  _614
REMARK  241  A    between atoms: _614  and  _615
REMARK  242  A    between atoms: _614  and  _617
REMARK  243  A    between atoms: _617  and  _618
REMARK  244  A    between atoms: _623  and  _625
REMARK  245  A    between atoms: _625  and  _626
REMARK  246  A    between atoms: _625  and  _628
REMARK  247  A    between atoms: _628  and  _629
REMARK  248  A    between atoms: _632  and  _634
REMARK  249  A    between atoms: _634  and  _635
REMARK  250  A    between atoms: _634  and  _637
REMARK  251  A    between atoms: _637  and  _638
REMARK  252  A    between atoms: _643  and  _644
REMARK  253  A    between atoms: _646  and  _648
REMARK  254  A    between atoms: _648  and  _649
REMARK  255  A    between atoms: _648  and  _651
REMARK  256  A    between atoms: _651  and  _652
REMARK  257  A    between atoms: _657  and  _658
REMARK  258  A    between atoms: _660  and  _662
REMARK  259  A    between atoms: _662  and  _663
REMARK  260  A    between atoms: _662  and  _665
REMARK  261  A    between atoms: _668  and  _670
REMARK  262  A    between atoms: _670  and  _671
REMARK  263  A    between atoms: _670  and  _673
REMARK  264  A    between atoms: _673  and  _674
REMARK  265  A    between atoms: _679  and  _681
REMARK  266  A    between atoms: _681  and  _682
REMARK  267  A    between atoms: _685  and  _687
REMARK  268  A    between atoms: _687  and  _688
REMARK  269  A    between atoms: _687  and  _690
REMARK  270  A    between atoms: _690  and  _691
REMARK  271  A    between atoms: _691  and  _692
REMARK  272  A    between atoms: _692  and  _693
REMARK  273  A    between atoms: _702  and  _704
REMARK  274  A    between atoms: _704  and  _705
REMARK  275  A    between atoms: _704  and  _707
REMARK  276  A    between atoms: _707  and  _708
REMARK  277  A    between atoms: _711  and  _713
REMARK  278  A    between atoms: _713  and  _714
REMARK  279  A    between atoms: _713  and  _716
REMARK  280  A    between atoms: _716  and  _717
REMARK  281  A    between atoms: _720  and  _722
REMARK  282  A    between atoms: _722  and  _723
REMARK  283  A    between atoms: _722  and  _725
REMARK  284  A    between atoms: _725  and  _726
REMARK                            x       y       z     vdW  Elec       q    Type
REMARK                         _______ _______ _______ _____ _____    ______ ____
ROOT
ATOM      1  O   HOH     1       8.774  13.210   7.290  0.00  0.00    +0.000 OA
ENDROOT
TORSDOF 0
REMARK  Name = ../refined-set-2016/1b0h/1b0h_pocket.pdb
REMARK  284 active torsions:
REMARK  status: ('A' for Active; 'I' for Inactive)
REMARK    1  A    between atoms: _1  and  _3
REMARK    2  A    between atoms: _3  and  _4
REMARK    3  A    between atoms: _3  and  _6
REMARK    4  A    between atoms: _6  and  _7
REMARK    5  A    between atoms: _12  and  _14
REMARK    6  A    between atoms: _14  and  _15
REMARK    7  A    between atoms: _17  and  _19
REMARK    8  A    between atoms: _19  and  _20
REMARK    9  A    between atoms: _19  and  _22
REMARK   10  A    between atoms: _22  and  _23
REMARK   11  A    between atoms: _25  and  _27
REMARK   12  A    between atoms: _27  and  _28
REMARK   13  A    between atoms: _27  and  _30
REMARK   14  A    between atoms: _30  and  _31
REMARK   15  A    between atoms: _31  and  _32
REMARK   16  A    between atoms: _37  and  _39
REMARK   17  A    between atoms: _39  and  _40
REMARK   18  A    between atoms: _39  and  _42
REMARK   19  A    between atoms: _42  and  _43
REMARK   20  A    between atoms: _46  and  _48
REMARK   21  A    between atoms: _48  and  _49
REMARK   22  A    between atoms: _48  and  _51
REMARK   23  A    between atoms: _51  and  _52
REMARK   24  A    between atoms: _52  and  _53
REMARK   25  A    between atoms: _56  and  _58
REMARK   26  A    between atoms: _58  and  _59
REMARK   27  A    between atoms: _61  and  _63
REMARK   28  A    between atoms: _63  and  _64
REMARK   29  A    between atoms: _63  and  _66
REMARK   30  A    between atoms: _70  and  _71
REMARK   31  A    between atoms: _76  and  _78
REMARK   32  A    between atoms: _78  and  _79
REMARK   33  A    between atoms: _78  and  _81
REMARK   34  A    between atoms: _81  and  _82
REMARK   35  A    between atoms: _82  and  _83
REMARK   36  A    between atoms: _86  and  _88
REMARK   37  A    between atoms: _88  and  _89
REMARK   38  A    between atoms: _88  and  _91
REMARK   39  A    between atoms: _91  and  _92
REMARK   40  A    between atoms: _94  and  _96
REMARK   41  A    between atoms: _96  and  _97
REMARK   42  A    between atoms: _96  and  _99
REMARK   43  A    between atoms: _99  and  _100
REMARK   44  A    between atoms: _105  and  _107
REMARK   45  A    between atoms: _107  and  _108
REMARK   46  A    between atoms: _107  and  _110
REMARK   47  A    between atoms: _110  and  _111
REMARK   48  A    between atoms: _111  and  _112
REMARK   49  A    between atoms: _112  and  _113
REMARK   50  A    between atoms: _123  and  _124
REMARK   51  A    between atoms: _129  and  _131
REMARK   52  A    between atoms: _131  and  _132
REMARK   53  A    between atoms: _131  and  _134
REMARK   54  A    between atoms: _134  and  _135
REMARK   55  A    between atoms: _140  and  _141
REMARK   56  A    between atoms: _143  and  _145
REMARK   57  A    between atoms: _145  and  _146
REMARK   58  A    between atoms: _145  and  _148
REMARK   59  A    between atoms: _148  and  _149
REMARK   60  A    between atoms: _154  and  _155
REMARK   61  A    between atoms: _157  and  _159
REMARK   62  A    between atoms: _159  and  _160
REMARK   63  A    between atoms: _159  and  _162
REMARK   64  A    between atoms: _165  and  _167
REMARK   65  A    between atoms: _167  and  _168
REMARK   66  A    between atoms: _167  and  _170
REMARK   67  A    between atoms: _170  and  _171
REMARK   68  A    between atoms: _177  and  _178
REMARK   69  A    between atoms: _183  and  _185
REMARK   70  A    between atoms: _185  and  _186
REMARK   71  A    between atoms: _185  and  _188
REMARK   72  A    between atoms: _188  and  _189
REMARK   73  A    between atoms: _191  and  _193
REMARK   74  A    between atoms: _193  and  _194
REMARK   75  A    between atoms: _193  and  _196
REMARK   76  A    between atoms: _196  and  _197
REMARK   77  A    between atoms: _197  and  _198
REMARK   78  A    between atoms: _201  and  _203
REMARK   79  A    between atoms: _203  and  _204
REMARK   80  A    between atoms: _203  and  _206
REMARK   81  A    between atoms: _206  and  _207
REMARK   82  A    between atoms: _212  and  _213
REMARK   83  A    between atoms: _215  and  _217
REMARK   84  A    between atoms: _217  and  _218
REMARK   85  A    between atoms: _217  and  _220
REMARK   86  A    between atoms: _220  and  _221
REMARK   87  A    between atoms: _226  and  _228
REMARK   88  A    between atoms: _228  and  _229
REMARK   89  A    between atoms: _228  and  _231
REMARK   90  A    between atoms: _231  and  _232
REMARK   91  A    between atoms: _237  and  _239
REMARK   92  A    between atoms: _239  and  _240
REMARK   93  A    between atoms: _239  and  _242
REMARK   94  A    between atoms: _242  and  _243
REMARK   95  A    between atoms: _243  and  _244
REMARK   96  A    between atoms: _246  and  _248
REMARK   97  A    between atoms: _248  and  _249
REMARK   98  A    between atoms: _248  and  _251
REMARK   99  A    between atoms: _251  and  _252
REMARK  100  A    between atoms: _257  and  _258
REMARK  101  A    between atoms: _260  and  _262
REMARK  102  A    between atoms: _262  and  _263
REMARK  103  A    between atoms: _262  and  _265
REMARK  104  A    between atoms: _265  and  _266
REMARK  105  A    between atoms: _269  and  _271
REMARK  106  A    between atoms: _271  and  _272
REMARK  107  A    between atoms: _271  and  _274
REMARK  108  A    between atoms: _274  and  _275
REMARK  109  A    between atoms: _275  and  _491
REMARK  110  A    between atoms: _276  and  _278
REMARK  111  A    between atoms: _278  and  _279
REMARK  112  A    between atoms: _278  and  _281
REMARK  113  A    between atoms: _281  and  _282
REMARK  114  A    between atoms: _285  and  _287
REMARK  115  A    between atoms: _287  and  _288
REMARK  116  A    between atoms: _287  and  _290
REMARK  117  A    between atoms: _290  and  _291
REMARK  118  A    between atoms: _296  and  _297
REMARK  119  A    between atoms: _299  and  _301
REMARK  120  A    between atoms: _301  and  _302
REMARK  121  A    between atoms: _301  and  _304
REMARK  122  A    between atoms: _304  and  _305
REMARK  123  A    between atoms: _310  and  _311
REMARK  124  A    between atoms: _313  and  _315
REMARK  125  A    between atoms: _315  and  _316
REMARK  126  A    between atoms: _315  and  _318
REMARK  127  A    between atoms: _318  and  _319
REMARK  128  A    between atoms: _319  and  _320
REMARK  129  A    between atoms: _323  and  _325
REMARK  130  A    between atoms: _325  and  _326
REMARK  131  A    between atoms: _325  and  _328
REMARK  132  A    between atoms: _328  and  _329
REMARK  133  A    between atoms: _334  and  _335
REMARK  134  A    between atoms: _337  and  _339
REMARK  135  A    between atoms: _339  and  _340
REMARK  136  A    between atoms: _339  and  _342
REMARK  137  A    between atoms: _342  and  _343
REMARK  138  A    between atoms: _348  and  _350
REMARK  139  A    between atoms: _350  and  _351
REMARK  140  A    between atoms: _350  and  _353
REMARK  141  A    between atoms: _353  and  _354
REMARK  142  A    between atoms: _356  and  _358
REMARK  143  A    between atoms: _358  and  _359
REMARK  144  A    between atoms: _358  and  _361
REMARK  145  A    between atoms: _361  and  _362
REMARK  146  A    between atoms: _365  and  _367
REMARK  147  A    between atoms: _367  and  _368
REMARK  148  A    between atoms: _367  and  _370
REMARK  149  A    between atoms: _370  and  _371
REMARK  150  A    between atoms: _376  and  _378
REMARK  151  A    between atoms: _378  and  _379
REMARK  152  A    between atoms: _378  and  _381
REMARK  153  A    between atoms: _381  and  _382
REMARK  154  A    between atoms: _392  and  _394
REMARK  155  A    between atoms: _394  and  _395
REMARK  156  A    between atoms: _394  and  _397
REMARK  157  A    between atoms: _397  and  _398
REMARK  158  A    between atoms: _404  and  _406
REMARK  159  A    between atoms: _406  and  _407
REMARK  160  A    between atoms: _406  and  _409
REMARK  161  A    between atoms: _409  and  _410
REMARK  162  A    between atoms: _413  and  _415
REMARK  163  A    between atoms: _415  and  _416
REMARK  164  A    between atoms: _415  and  _418
REMARK  165  A    between atoms: _418  and  _419
REMARK  166  A    between atoms: _419  and  _420
REMARK  167  A    between atoms: _420  and  _421
REMARK  168  A    between atoms: _430  and  _432
REMARK  169  A    between atoms: _432  and  _433
REMARK  170  A    between atoms: _432  and  _435
REMARK  171  A    between atoms: _435  and  _436
REMARK  172  A    between atoms: _441  and  _443
REMARK  173  A    between atoms: _443  and  _444
REMARK  174  A    between atoms: _443  and  _446
REMARK  175  A    between atoms: _446  and  _447
REMARK  176  A    between atoms: _447  and  _448
REMARK  177  A    between atoms: _448  and  _449
REMARK  178  A    between atoms: _458  and  _460
REMARK  179  A    between atoms: _460  and  _461
REMARK  180  A    between atoms: _464  and  _466
REMARK  181  A    between atoms: _466  and  _467
REMARK  182  A    between atoms: _469  and  _471
REMARK  183  A    between atoms: _471  and  _472
REMARK  184  A    between atoms: _471  and  _474
REMARK  185  A    between atoms: _474  and  _475
REMARK  186  A    between atoms: _485  and  _487
REMARK  187  A    between atoms: _487  and  _488
REMARK  188  A    between atoms: _487  and  _490
REMARK  189  A    between atoms: _490  and  _491
REMARK  190  A    between atoms: _492  and  _494
REMARK  191  A    between atoms: _494  and  _495
REMARK  192  A    between atoms: _498  and  _500
REMARK  193  A    between atoms: _500  and  _501
REMARK  194  A    between atoms: _500  and  _503
REMARK  195  A    between atoms: _503  and  _504
REMARK  196  A    between atoms: _507  and  _509
REMARK  197  A    between atoms: _509  and  _510
REMARK  198  A    between atoms: _509  and  _512
REMARK  199  A    between atoms: _512  and  _513
REMARK  200  A    between atoms: _518  and  _519
REMARK  201  A    between atoms: _521  and  _523
REMARK  202  A    between atoms: _523  and  _524
REMARK  203  A    between atoms: _523  and  _526
REMARK  204  A    between atoms: _526  and  _527
REMARK  205  A    between atoms: _529  and  _531
REMARK  206  A    between atoms: _531  and  _532
REMARK  207  A    between atoms: _531  and  _534
REMARK  208  A    between atoms: _534  and  _535
REMARK  209  A    between atoms: _541  and  _543
REMARK  210  A    between atoms: _543  and  _544
REMARK  211  A    between atoms: _543  and  _546
REMARK  212  A    between atoms: _546  and  _547
REMARK  213  A    between atoms: _550  and  _552
REMARK  214  A    between atoms: _552  and  _553
REMARK  215  A    between atoms: _552  and  _555
REMARK  216  A    between atoms: _555  and  _556
REMARK  217  A    between atoms: _556  and  _557
REMARK  218  A    between atoms: _559  and  _561
REMARK  219  A    between atoms: _561  and  _562
REMARK  220  A    between atoms: _561  and  _564
REMARK  221  A    between atoms: _564  and  _565
REMARK  222  A    between atoms: _567  and  _569
REMARK  223  A    between atoms: _569  and  _570
REMARK  224  A    between atoms: _569  and  _572
REMARK  225  A    between atoms: _572  and  _573
REMARK  226  A    between atoms: _575  and  _577
REMARK  227  A    between atoms: _577  and  _578
REMARK  228  A    between atoms: _577  and  _580
REMARK  229  A    between atoms: _580  and  _581
REMARK  230  A    between atoms: _586  and  _588
REMARK  231  A    between atoms: _588  and  _589
REMARK  232  A    between atoms: _588  and  _591
REMARK  233  A    between atoms: _591  and  _592
REMARK  234  A    between atoms: _597  and  _599
REMARK  235  A    between atoms: _599  and  _600
REMARK  236  A    between atoms: _599  and  _602
REMARK  237  A    between atoms: _602  and  _603
REMARK  238  A    between atoms: _606  and  _608
REMARK  239  A    between atoms: _608  and  _609
REMARK  240  A    between atoms: _612  and  _614
REMARK  241  A    between atoms: _614  and  _615
REMARK  242  A    between atoms: _614  and  _617
REMARK  243  A    between atoms: _617  and  _618
REMARK  244  A    between atoms: _623  and  _625
REMARK  245  A    between atoms: _625  and  _626
REMARK  246  A    between atoms: _625  and  _628
REMARK  247  A    between atoms: _628  and  _629
REMARK  248  A    between atoms: _632  and  _634
REMARK  249  A    between atoms: _634  and  _635
REMARK  250  A    between atoms: _634  and  _637
REMARK  251  A    between atoms: _637  and  _638
REMARK  252  A    between atoms: _643  and  _644
REMARK  253  A    between atoms: _646  and  _648
REMARK  254  A    between atoms: _648  and  _649
REMARK  255  A    between atoms: _648  and  _651
REMARK  256  A    between atoms: _651  and  _652
REMARK  257  A    between atoms: _657  and  _658
REMARK  258  A    between atoms: _660  and  _662
REMARK  259  A    between atoms: _662  and  _663
REMARK  260  A    between atoms: _662  and  _665
REMARK  261  A    between atoms: _668  and  _670
REMARK  262  A    between atoms: _670  and  _671
REMARK  263  A    between atoms: _670  and  _673
REMARK  264  A    between atoms: _673  and  _674
REMARK  265  A    between atoms: _679  and  _681
REMARK  266  A    between atoms: _681  and  _682
REMARK  267  A    between atoms: _685  and  _687
REMARK  268  A    between atoms: _687  and  _688
REMARK  269  A    between atoms: _687  and  _690
REMARK  270  A    between atoms: _690  and  _691
REMARK  271  A    between atoms: _691  and  _692
REMARK  272  A    between atoms: _692  and  _693
REMARK  273  A    between atoms: _702  and  _704
REMARK  274  A    between atoms: _704  and  _705
REMARK  275  A    between atoms: _704  and  _707
REMARK  276  A    between atoms: _707  and  _708
REMARK  277  A    between atoms: _711  and  _713
REMARK  278  A    between atoms: _713  and  _714
REMARK  279  A    between atoms: _713  and  _716
REMARK  280  A    between atoms: _716  and  _717
REMARK  281  A    between atoms: _720  and  _722
REMARK  282  A    between atoms: _722  and  _723
REMARK  283  A    between atoms: _722  and  _725
REMARK  284  A    between atoms: _725  and  _726
REMARK                            x       y       z     vdW  Elec       q    Type
REMARK                         _______ _______ _______ _____ _____    ______ ____
ROOT
ATOM      1  O   HOH     1      -4.089  22.647  15.165  0.00  0.00    +0.000 OA
ENDROOT
TORSDOF 0
REMARK  Name = ../refined-set-2016/1b0h/1b0h_pocket.pdb
REMARK  284 active torsions:
REMARK  status: ('A' for Active; 'I' for Inactive)
REMARK    1  A    between atoms: _1  and  _3
REMARK    2  A    between atoms: _3  and  _4
REMARK    3  A    between atoms: _3  and  _6
REMARK    4  A    between atoms: _6  and  _7
REMARK    5  A    between atoms: _12  and  _14
REMARK    6  A    between atoms: _14  and  _15
REMARK    7  A    between atoms: _17  and  _19
REMARK    8  A    between atoms: _19  and  _20
REMARK    9  A    between atoms: _19  and  _22
REMARK   10  A    between atoms: _22  and  _23
REMARK   11  A    between atoms: _25  and  _27
REMARK   12  A    between atoms: _27  and  _28
REMARK   13  A    between atoms: _27  and  _30
REMARK   14  A    between atoms: _30  and  _31
REMARK   15  A    between atoms: _31  and  _32
REMARK   16  A    between atoms: _37  and  _39
REMARK   17  A    between atoms: _39  and  _40
REMARK   18  A    between atoms: _39  and  _42
REMARK   19  A    between atoms: _42  and  _43
REMARK   20  A    between atoms: _46  and  _48
REMARK   21  A    between atoms: _48  and  _49
REMARK   22  A    between atoms: _48  and  _51
REMARK   23  A    between atoms: _51  and  _52
REMARK   24  A    between atoms: _52  and  _53
REMARK   25  A    between atoms: _56  and  _58
REMARK   26  A    between atoms: _58  and  _59
REMARK   27  A    between atoms: _61  and  _63
REMARK   28  A    between atoms: _63  and  _64
REMARK   29  A    between atoms: _63  and  _66
REMARK   30  A    between atoms: _70  and  _71
REMARK   31  A    between atoms: _76  and  _78
REMARK   32  A    between atoms: _78  and  _79
REMARK   33  A    between atoms: _78  and  _81
REMARK   34  A    between atoms: _81  and  _82
REMARK   35  A    between atoms: _82  and  _83
REMARK   36  A    between atoms: _86  and  _88
REMARK   37  A    between atoms: _88  and  _89
REMARK   38  A    between atoms: _88  and  _91
REMARK   39  A    between atoms: _91  and  _92
REMARK   40  A    between atoms: _94  and  _96
REMARK   41  A    between atoms: _96  and  _97
REMARK   42  A    between atoms: _96  and  _99
REMARK   43  A    between atoms: _99  and  _100
REMARK   44  A    between atoms: _105  and  _107
REMARK   45  A    between atoms: _107  and  _108
REMARK   46  A    between atoms: _107  and  _110
REMARK   47  A    between atoms: _110  and  _111
REMARK   48  A    between atoms: _111  and  _112
REMARK   49  A    between atoms: _112  and  _113
REMARK   50  A    between atoms: _123  and  _124
REMARK   51  A    between atoms: _129  and  _131
REMARK   52  A    between atoms: _131  and  _132
REMARK   53  A    between atoms: _131  and  _134
REMARK   54  A    between atoms: _134  and  _135
REMARK   55  A    between atoms: _140  and  _141
REMARK   56  A    between atoms: _143  and  _145
REMARK   57  A    between atoms: _145  and  _146
REMARK   58  A    between atoms: _145  and  _148
REMARK   59  A    between atoms: _148  and  _149
REMARK   60  A    between atoms: _154  and  _155
REMARK   61  A    between atoms: _157  and  _159
REMARK   62  A    between atoms: _159  and  _160
REMARK   63  A    between atoms: _159  and  _162
REMARK   64  A    between atoms: _165  and  _167
REMARK   65  A    between atoms: _167  and  _168
REMARK   66  A    between atoms: _167  and  _170
REMARK   67  A    between atoms: _170  and  _171
REMARK   68  A    between atoms: _177  and  _178
REMARK   69  A    between atoms: _183  and  _185
REMARK   70  A    between atoms: _185  and  _186
REMARK   71  A    between atoms: _185  and  _188
REMARK   72  A    between atoms: _188  and  _189
REMARK   73  A    between atoms: _191  and  _193
REMARK   74  A    between atoms: _193  and  _194
REMARK   75  A    between atoms: _193  and  _196
REMARK   76  A    between atoms: _196  and  _197
REMARK   77  A    between atoms: _197  and  _198
REMARK   78  A    between atoms: _201  and  _203
REMARK   79  A    between atoms: _203  and  _204
REMARK   80  A    between atoms: _203  and  _206
REMARK   81  A    between atoms: _206  and  _207
REMARK   82  A    between atoms: _212  and  _213
REMARK   83  A    between atoms: _215  and  _217
REMARK   84  A    between atoms: _217  and  _218
REMARK   85  A    between atoms: _217  and  _220
REMARK   86  A    between atoms: _220  and  _221
REMARK   87  A    between atoms: _226  and  _228
REMARK   88  A    between atoms: _228  and  _229
REMARK   89  A    between atoms: _228  and  _231
REMARK   90  A    between atoms: _231  and  _232
REMARK   91  A    between atoms: _237  and  _239
REMARK   92  A    between atoms: _239  and  _240
REMARK   93  A    between atoms: _239  and  _242
REMARK   94  A    between atoms: _242  and  _243
REMARK   95  A    between atoms: _243  and  _244
REMARK   96  A    between atoms: _246  and  _248
REMARK   97  A    between atoms: _248  and  _249
REMARK   98  A    between atoms: _248  and  _251
REMARK   99  A    between atoms: _251  and  _252
REMARK  100  A    between atoms: _257  and  _258
REMARK  101  A    between atoms: _260  and  _262
REMARK  102  A    between atoms: _262  and  _263
REMARK  103  A    between atoms: _262  and  _265
REMARK  104  A    between atoms: _265  and  _266
REMARK  105  A    between atoms: _269  and  _271
REMARK  106  A    between atoms: _271  and  _272
REMARK  107  A    between atoms: _271  and  _274
REMARK  108  A    between atoms: _274  and  _275
REMARK  109  A    between atoms: _275  and  _491
REMARK  110  A    between atoms: _276  and  _278
REMARK  111  A    between atoms: _278  and  _279
REMARK  112  A    between atoms: _278  and  _281
REMARK  113  A    between atoms: _281  and  _282
REMARK  114  A    between atoms: _285  and  _287
REMARK  115  A    between atoms: _287  and  _288
REMARK  116  A    between atoms: _287  and  _290
REMARK  117  A    between atoms: _290  and  _291
REMARK  118  A    between atoms: _296  and  _297
REMARK  119  A    between atoms: _299  and  _301
REMARK  120  A    between atoms: _301  and  _302
REMARK  121  A    between atoms: _301  and  _304
REMARK  122  A    between atoms: _304  and  _305
REMARK  123  A    between atoms: _310  and  _311
REMARK  124  A    between atoms: _313  and  _315
REMARK  125  A    between atoms: _315  and  _316
REMARK  126  A    between atoms: _315  and  _318
REMARK  127  A    between atoms: _318  and  _319
REMARK  128  A    between atoms: _319  and  _320
REMARK  129  A    between atoms: _323  and  _325
REMARK  130  A    between atoms: _325  and  _326
REMARK  131  A    between atoms: _325  and  _328
REMARK  132  A    between atoms: _328  and  _329
REMARK  133  A    between atoms: _334  and  _335
REMARK  134  A    between atoms: _337  and  _339
REMARK  135  A    between atoms: _339  and  _340
REMARK  136  A    between atoms: _339  and  _342
REMARK  137  A    between atoms: _342  and  _343
REMARK  138  A    between atoms: _348  and  _350
REMARK  139  A    between atoms: _350  and  _351
REMARK  140  A    between atoms: _350  and  _353
REMARK  141  A    between atoms: _353  and  _354
REMARK  142  A    between atoms: _356  and  _358
REMARK  143  A    between atoms: _358  and  _359
REMARK  144  A    between atoms: _358  and  _361
REMARK  145  A    between atoms: _361  and  _362
REMARK  146  A    between atoms: _365  and  _367
REMARK  147  A    between atoms: _367  and  _368
REMARK  148  A    between atoms: _367  and  _370
REMARK  149  A    between atoms: _370  and  _371
REMARK  150  A    between atoms: _376  and  _378
REMARK  151  A    between atoms: _378  and  _379
REMARK  152  A    between atoms: _378  and  _381
REMARK  153  A    between atoms: _381  and  _382
REMARK  154  A    between atoms: _392  and  _394
REMARK  155  A    between atoms: _394  and  _395
REMARK  156  A    between atoms: _394  and  _397
REMARK  157  A    between atoms: _397  and  _398
REMARK  158  A    between atoms: _404  and  _406
REMARK  159  A    between atoms: _406  and  _407
REMARK  160  A    between atoms: _406  and  _409
REMARK  161  A    between atoms: _409  and  _410
REMARK  162  A    between atoms: _413  and  _415
REMARK  163  A    between atoms: _415  and  _416
REMARK  164  A    between atoms: _415  and  _418
REMARK  165  A    between atoms: _418  and  _419
REMARK  166  A    between atoms: _419  and  _420
REMARK  167  A    between atoms: _420  and  _421
REMARK  168  A    between atoms: _430  and  _432
REMARK  169  A    between atoms: _432  and  _433
REMARK  170  A    between atoms: _432  and  _435
REMARK  171  A    between atoms: _435  and  _436
REMARK  172  A    between atoms: _441  and  _443
REMARK  173  A    between atoms: _443  and  _444
REMARK  174  A    between atoms: _443  and  _446
REMARK  175  A    between atoms: _446  and  _447
REMARK  176  A    between atoms: _447  and  _448
REMARK  177  A    between atoms: _448  and  _449
REMARK  178  A    between atoms: _458  and  _460
REMARK  179  A    between atoms: _460  and  _461
REMARK  180  A    between atoms: _464  and  _466
REMARK  181  A    between atoms: _466  and  _467
REMARK  182  A    between atoms: _469  and  _471
REMARK  183  A    between atoms: _471  and  _472
REMARK  184  A    between atoms: _471  and  _474
REMARK  185  A    between atoms: _474  and  _475
REMARK  186  A    between atoms: _485  and  _487
REMARK  187  A    between atoms: _487  and  _488
REMARK  188  A    between atoms: _487  and  _490
REMARK  189  A    between atoms: _490  and  _491
REMARK  190  A    between atoms: _492  and  _494
REMARK  191  A    between atoms: _494  and  _495
REMARK  192  A    between atoms: _498  and  _500
REMARK  193  A    between atoms: _500  and  _501
REMARK  194  A    between atoms: _500  and  _503
REMARK  195  A    between atoms: _503  and  _504
REMARK  196  A    between atoms: _507  and  _509
REMARK  197  A    between atoms: _509  and  _510
REMARK  198  A    between atoms: _509  and  _512
REMARK  199  A    between atoms: _512  and  _513
REMARK  200  A    between atoms: _518  and  _519
REMARK  201  A    between atoms: _521  and  _523
REMARK  202  A    between atoms: _523  and  _524
REMARK  203  A    between atoms: _523  and  _526
REMARK  204  A    between atoms: _526  and  _527
REMARK  205  A    between atoms: _529  and  _531
REMARK  206  A    between atoms: _531  and  _532
REMARK  207  A    between atoms: _531  and  _534
REMARK  208  A    between atoms: _534  and  _535
REMARK  209  A    between atoms: _541  and  _543
REMARK  210  A    between atoms: _543  and  _544
REMARK  211  A    between atoms: _543  and  _546
REMARK  212  A    between atoms: _546  and  _547
REMARK  213  A    between atoms: _550  and  _552
REMARK  214  A    between atoms: _552  and  _553
REMARK  215  A    between atoms: _552  and  _555
REMARK  216  A    between atoms: _555  and  _556
REMARK  217  A    between atoms: _556  and  _557
REMARK  218  A    between atoms: _559  and  _561
REMARK  219  A    between atoms: _561  and  _562
REMARK  220  A    between atoms: _561  and  _564
REMARK  221  A    between atoms: _564  and  _565
REMARK  222  A    between atoms: _567  and  _569
REMARK  223  A    between atoms: _569  and  _570
REMARK  224  A    between atoms: _569  and  _572
REMARK  225  A    between atoms: _572  and  _573
REMARK  226  A    between atoms: _575  and  _577
REMARK  227  A    between atoms: _577  and  _578
REMARK  228  A    between atoms: _577  and  _580
REMARK  229  A    between atoms: _580  and  _581
REMARK  230  A    between atoms: _586  and  _588
REMARK  231  A    between atoms: _588  and  _589
REMARK  232  A    between atoms: _588  and  _591
REMARK  233  A    between atoms: _591  and  _592
REMARK  234  A    between atoms: _597  and  _599
REMARK  235  A    between atoms: _599  and  _600
REMARK  236  A    between atoms: _599  and  _602
REMARK  237  A    between atoms: _602  and  _603
REMARK  238  A    between atoms: _606  and  _608
REMARK  239  A    between atoms: _608  and  _609
REMARK  240  A    between atoms: _612  and  _614
REMARK  241  A    between atoms: _614  and  _615
REMARK  242  A    between atoms: _614  and  _617
REMARK  243  A    between atoms: _617  and  _618
REMARK  244  A    between atoms: _623  and  _625
REMARK  245  A    between atoms: _625  and  _626
REMARK  246  A    between atoms: _625  and  _628
REMARK  247  A    between atoms: _628  and  _629
REMARK  248  A    between atoms: _632  and  _634
REMARK  249  A    between atoms: _634  and  _635
REMARK  250  A    between atoms: _634  and  _637
REMARK  251  A    between atoms: _637  and  _638
REMARK  252  A    between atoms: _643  and  _644
REMARK  253  A    between atoms: _646  and  _648
REMARK  254  A    between atoms: _648  and  _649
REMARK  255  A    between atoms: _648  and  _651
REMARK  256  A    between atoms: _651  and  _652
REMARK  257  A    between atoms: _657  and  _658
REMARK  258  A    between atoms: _660  and  _662
REMARK  259  A    between atoms: _662  and  _663
REMARK  260  A    between atoms: _662  and  _665
REMARK  261  A    between atoms: _668  and  _670
REMARK  262  A    between atoms: _670  and  _671
REMARK  263  A    between atoms: _670  and  _673
REMARK  264  A    between atoms: _673  and  _674
REMARK  265  A    between atoms: _679  and  _681
REMARK  266  A    between atoms: _681  and  _682
REMARK  267  A    between atoms: _685  and  _687
REMARK  268  A    between atoms: _687  and  _688
REMARK  269  A    between atoms: _687  and  _690
REMARK  270  A    between atoms: _690  and  _691
REMARK  271  A    between atoms: _691  and  _692
REMARK  272  A    between atoms: _692  and  _693
REMARK  273  A    between atoms: _702  and  _704
REMARK  274  A    between atoms: _704  and  _705
REMARK  275  A    between atoms: _704  and  _707
REMARK  276  A    between atoms: _707  and  _708
REMARK  277  A    between atoms: _711  and  _713
REMARK  278  A    between atoms: _713  and  _714
REMARK  279  A    between atoms: _713  and  _716
REMARK  280  A    between atoms: _716  and  _717
REMARK  281  A    between atoms: _720  and  _722
REMARK  282  A    between atoms: _722  and  _723
REMARK  283  A    between atoms: _722  and  _725
REMARK  284  A    between atoms: _725  and  _726
REMARK                            x       y       z     vdW  Elec       q    Type
REMARK                         _______ _______ _______ _____ _____    ______ ____
ROOT
ATOM      1  O   HOH     1       0.714  22.033  19.188  0.00  0.00    +0.000 OA
ENDROOT
TORSDOF 0
REMARK  Name = ../refined-set-2016/1b0h/1b0h_pocket.pdb
REMARK  284 active torsions:
REMARK  status: ('A' for Active; 'I' for Inactive)
REMARK    1  A    between atoms: _1  and  _3
REMARK    2  A    between atoms: _3  and  _4
REMARK    3  A    between atoms: _3  and  _6
REMARK    4  A    between atoms: _6  and  _7
REMARK    5  A    between atoms: _12  and  _14
REMARK    6  A    between atoms: _14  and  _15
REMARK    7  A    between atoms: _17  and  _19
REMARK    8  A    between atoms: _19  and  _20
REMARK    9  A    between atoms: _19  and  _22
REMARK   10  A    between atoms: _22  and  _23
REMARK   11  A    between atoms: _25  and  _27
REMARK   12  A    between atoms: _27  and  _28
REMARK   13  A    between atoms: _27  and  _30
REMARK   14  A    between atoms: _30  and  _31
REMARK   15  A    between atoms: _31  and  _32
REMARK   16  A    between atoms: _37  and  _39
REMARK   17  A    between atoms: _39  and  _40
REMARK   18  A    between atoms: _39  and  _42
REMARK   19  A    between atoms: _42  and  _43
REMARK   20  A    between atoms: _46  and  _48
REMARK   21  A    between atoms: _48  and  _49
REMARK   22  A    between atoms: _48  and  _51
REMARK   23  A    between atoms: _51  and  _52
REMARK   24  A    between atoms: _52  and  _53
REMARK   25  A    between atoms: _56  and  _58
REMARK   26  A    between atoms: _58  and  _59
REMARK   27  A    between atoms: _61  and  _63
REMARK   28  A    between atoms: _63  and  _64
REMARK   29  A    between atoms: _63  and  _66
REMARK   30  A    between atoms: _70  and  _71
REMARK   31  A    between atoms: _76  and  _78
REMARK   32  A    between atoms: _78  and  _79
REMARK   33  A    between atoms: _78  and  _81
REMARK   34  A    between atoms: _81  and  _82
REMARK   35  A    between atoms: _82  and  _83
REMARK   36  A    between atoms: _86  and  _88
REMARK   37  A    between atoms: _88  and  _89
REMARK   38  A    between atoms: _88  and  _91
REMARK   39  A    between atoms: _91  and  _92
REMARK   40  A    between atoms: _94  and  _96
REMARK   41  A    between atoms: _96  and  _97
REMARK   42  A    between atoms: _96  and  _99
REMARK   43  A    between atoms: _99  and  _100
REMARK   44  A    between atoms: _105  and  _107
REMARK   45  A    between atoms: _107  and  _108
REMARK   46  A    between atoms: _107  and  _110
REMARK   47  A    between atoms: _110  and  _111
REMARK   48  A    between atoms: _111  and  _112
REMARK   49  A    between atoms: _112  and  _113
REMARK   50  A    between atoms: _123  and  _124
REMARK   51  A    between atoms: _129  and  _131
REMARK   52  A    between atoms: _131  and  _132
REMARK   53  A    between atoms: _131  and  _134
REMARK   54  A    between atoms: _134  and  _135
REMARK   55  A    between atoms: _140  and  _141
REMARK   56  A    between atoms: _143  and  _145
REMARK   57  A    between atoms: _145  and  _146
REMARK   58  A    between atoms: _145  and  _148
REMARK   59  A    between atoms: _148  and  _149
REMARK   60  A    between atoms: _154  and  _155
REMARK   61  A    between atoms: _157  and  _159
REMARK   62  A    between atoms: _159  and  _160
REMARK   63  A    between atoms: _159  and  _162
REMARK   64  A    between atoms: _165  and  _167
REMARK   65  A    between atoms: _167  and  _168
REMARK   66  A    between atoms: _167  and  _170
REMARK   67  A    between atoms: _170  and  _171
REMARK   68  A    between atoms: _177  and  _178
REMARK   69  A    between atoms: _183  and  _185
REMARK   70  A    between atoms: _185  and  _186
REMARK   71  A    between atoms: _185  and  _188
REMARK   72  A    between atoms: _188  and  _189
REMARK   73  A    between atoms: _191  and  _193
REMARK   74  A    between atoms: _193  and  _194
REMARK   75  A    between atoms: _193  and  _196
REMARK   76  A    between atoms: _196  and  _197
REMARK   77  A    between atoms: _197  and  _198
REMARK   78  A    between atoms: _201  and  _203
REMARK   79  A    between atoms: _203  and  _204
REMARK   80  A    between atoms: _203  and  _206
REMARK   81  A    between atoms: _206  and  _207
REMARK   82  A    between atoms: _212  and  _213
REMARK   83  A    between atoms: _215  and  _217
REMARK   84  A    between atoms: _217  and  _218
REMARK   85  A    between atoms: _217  and  _220
REMARK   86  A    between atoms: _220  and  _221
REMARK   87  A    between atoms: _226  and  _228
REMARK   88  A    between atoms: _228  and  _229
REMARK   89  A    between atoms: _228  and  _231
REMARK   90  A    between atoms: _231  and  _232
REMARK   91  A    between atoms: _237  and  _239
REMARK   92  A    between atoms: _239  and  _240
REMARK   93  A    between atoms: _239  and  _242
REMARK   94  A    between atoms: _242  and  _243
REMARK   95  A    between atoms: _243  and  _244
REMARK   96  A    between atoms: _246  and  _248
REMARK   97  A    between atoms: _248  and  _249
REMARK   98  A    between atoms: _248  and  _251
REMARK   99  A    between atoms: _251  and  _252
REMARK  100  A    between atoms: _257  and  _258
REMARK  101  A    between atoms: _260  and  _262
REMARK  102  A    between atoms: _262  and  _263
REMARK  103  A    between atoms: _262  and  _265
REMARK  104  A    between atoms: _265  and  _266
REMARK  105  A    between atoms: _269  and  _271
REMARK  106  A    between atoms: _271  and  _272
REMARK  107  A    between atoms: _271  and  _274
REMARK  108  A    between atoms: _274  and  _275
REMARK  109  A    between atoms: _275  and  _491
REMARK  110  A    between atoms: _276  and  _278
REMARK  111  A    between atoms: _278  and  _279
REMARK  112  A    between atoms: _278  and  _281
REMARK  113  A    between atoms: _281  and  _282
REMARK  114  A    between atoms: _285  and  _287
REMARK  115  A    between atoms: _287  and  _288
REMARK  116  A    between atoms: _287  and  _290
REMARK  117  A    between atoms: _290  and  _291
REMARK  118  A    between atoms: _296  and  _297
REMARK  119  A    between atoms: _299  and  _301
REMARK  120  A    between atoms: _301  and  _302
REMARK  121  A    between atoms: _301  and  _304
REMARK  122  A    between atoms: _304  and  _305
REMARK  123  A    between atoms: _310  and  _311
REMARK  124  A    between atoms: _313  and  _315
REMARK  125  A    between atoms: _315  and  _316
REMARK  126  A    between atoms: _315  and  _318
REMARK  127  A    between atoms: _318  and  _319
REMARK  128  A    between atoms: _319  and  _320
REMARK  129  A    between atoms: _323  and  _325
REMARK  130  A    between atoms: _325  and  _326
REMARK  131  A    between atoms: _325  and  _328
REMARK  132  A    between atoms: _328  and  _329
REMARK  133  A    between atoms: _334  and  _335
REMARK  134  A    between atoms: _337  and  _339
REMARK  135  A    between atoms: _339  and  _340
REMARK  136  A    between atoms: _339  and  _342
REMARK  137  A    between atoms: _342  and  _343
REMARK  138  A    between atoms: _348  and  _350
REMARK  139  A    between atoms: _350  and  _351
REMARK  140  A    between atoms: _350  and  _353
REMARK  141  A    between atoms: _353  and  _354
REMARK  142  A    between atoms: _356  and  _358
REMARK  143  A    between atoms: _358  and  _359
REMARK  144  A    between atoms: _358  and  _361
REMARK  145  A    between atoms: _361  and  _362
REMARK  146  A    between atoms: _365  and  _367
REMARK  147  A    between atoms: _367  and  _368
REMARK  148  A    between atoms: _367  and  _370
REMARK  149  A    between atoms: _370  and  _371
REMARK  150  A    between atoms: _376  and  _378
REMARK  151  A    between atoms: _378  and  _379
REMARK  152  A    between atoms: _378  and  _381
REMARK  153  A    between atoms: _381  and  _382
REMARK  154  A    between atoms: _392  and  _394
REMARK  155  A    between atoms: _394  and  _395
REMARK  156  A    between atoms: _394  and  _397
REMARK  157  A    between atoms: _397  and  _398
REMARK  158  A    between atoms: _404  and  _406
REMARK  159  A    between atoms: _406  and  _407
REMARK  160  A    between atoms: _406  and  _409
REMARK  161  A    between atoms: _409  and  _410
REMARK  162  A    between atoms: _413  and  _415
REMARK  163  A    between atoms: _415  and  _416
REMARK  164  A    between atoms: _415  and  _418
REMARK  165  A    between atoms: _418  and  _419
REMARK  166  A    between atoms: _419  and  _420
REMARK  167  A    between atoms: _420  and  _421
REMARK  168  A    between atoms: _430  and  _432
REMARK  169  A    between atoms: _432  and  _433
REMARK  170  A    between atoms: _432  and  _435
REMARK  171  A    between atoms: _435  and  _436
REMARK  172  A    between atoms: _441  and  _443
REMARK  173  A    between atoms: _443  and  _444
REMARK  174  A    between atoms: _443  and  _446
REMARK  175  A    between atoms: _446  and  _447
REMARK  176  A    between atoms: _447  and  _448
REMARK  177  A    between atoms: _448  and  _449
REMARK  178  A    between atoms: _458  and  _460
REMARK  179  A    between atoms: _460  and  _461
REMARK  180  A    between atoms: _464  and  _466
REMARK  181  A    between atoms: _466  and  _467
REMARK  182  A    between atoms: _469  and  _471
REMARK  183  A    between atoms: _471  and  _472
REMARK  184  A    between atoms: _471  and  _474
REMARK  185  A    between atoms: _474  and  _475
REMARK  186  A    between atoms: _485  and  _487
REMARK  187  A    between atoms: _487  and  _488
REMARK  188  A    between atoms: _487  and  _490
REMARK  189  A    between atoms: _490  and  _491
REMARK  190  A    between atoms: _492  and  _494
REMARK  191  A    between atoms: _494  and  _495
REMARK  192  A    between atoms: _498  and  _500
REMARK  193  A    between atoms: _500  and  _501
REMARK  194  A    between atoms: _500  and  _503
REMARK  195  A    between atoms: _503  and  _504
REMARK  196  A    between atoms: _507  and  _509
REMARK  197  A    between atoms: _509  and  _510
REMARK  198  A    between atoms: _509  and  _512
REMARK  199  A    between atoms: _512  and  _513
REMARK  200  A    between atoms: _518  and  _519
REMARK  201  A    between atoms: _521  and  _523
REMARK  202  A    between atoms: _523  and  _524
REMARK  203  A    between atoms: _523  and  _526
REMARK  204  A    between atoms: _526  and  _527
REMARK  205  A    between atoms: _529  and  _531
REMARK  206  A    between atoms: _531  and  _532
REMARK  207  A    between atoms: _531  and  _534
REMARK  208  A    between atoms: _534  and  _535
REMARK  209  A    between atoms: _541  and  _543
REMARK  210  A    between atoms: _543  and  _544
REMARK  211  A    between atoms: _543  and  _546
REMARK  212  A    between atoms: _546  and  _547
REMARK  213  A    between atoms: _550  and  _552
REMARK  214  A    between atoms: _552  and  _553
REMARK  215  A    between atoms: _552  and  _555
REMARK  216  A    between atoms: _555  and  _556
REMARK  217  A    between atoms: _556  and  _557
REMARK  218  A    between atoms: _559  and  _561
REMARK  219  A    between atoms: _561  and  _562
REMARK  220  A    between atoms: _561  and  _564
REMARK  221  A    between atoms: _564  and  _565
REMARK  222  A    between atoms: _567  and  _569
REMARK  223  A    between atoms: _569  and  _570
REMARK  224  A    between atoms: _569  and  _572
REMARK  225  A    between atoms: _572  and  _573
REMARK  226  A    between atoms: _575  and  _577
REMARK  227  A    between atoms: _577  and  _578
REMARK  228  A    between atoms: _577  and  _580
REMARK  229  A    between atoms: _580  and  _581
REMARK  230  A    between atoms: _586  and  _588
REMARK  231  A    between atoms: _588  and  _589
REMARK  232  A    between atoms: _588  and  _591
REMARK  233  A    between atoms: _591  and  _592
REMARK  234  A    between atoms: _597  and  _599
REMARK  235  A    between atoms: _599  and  _600
REMARK  236  A    between atoms: _599  and  _602
REMARK  237  A    between atoms: _602  and  _603
REMARK  238  A    between atoms: _606  and  _608
REMARK  239  A    between atoms: _608  and  _609
REMARK  240  A    between atoms: _612  and  _614
REMARK  241  A    between atoms: _614  and  _615
REMARK  242  A    between atoms: _614  and  _617
REMARK  243  A    between atoms: _617  and  _618
REMARK  244  A    between atoms: _623  and  _625
REMARK  245  A    between atoms: _625  and  _626
REMARK  246  A    between atoms: _625  and  _628
REMARK  247  A    between atoms: _628  and  _629
REMARK  248  A    between atoms: _632  and  _634
REMARK  249  A    between atoms: _634  and  _635
REMARK  250  A    between atoms: _634  and  _637
REMARK  251  A    between atoms: _637  and  _638
REMARK  252  A    between atoms: _643  and  _644
REMARK  253  A    between atoms: _646  and  _648
REMARK  254  A    between atoms: _648  and  _649
REMARK  255  A    between atoms: _648  and  _651
REMARK  256  A    between atoms: _651  and  _652
REMARK  257  A    between atoms: _657  and  _658
REMARK  258  A    between atoms: _660  and  _662
REMARK  259  A    between atoms: _662  and  _663
REMARK  260  A    between atoms: _662  and  _665
REMARK  261  A    between atoms: _668  and  _670
REMARK  262  A    between atoms: _670  and  _671
REMARK  263  A    between atoms: _670  and  _673
REMARK  264  A    between atoms: _673  and  _674
REMARK  265  A    between atoms: _679  and  _681
REMARK  266  A    between atoms: _681  and  _682
REMARK  267  A    between atoms: _685  and  _687
REMARK  268  A    between atoms: _687  and  _688
REMARK  269  A    between atoms: _687  and  _690
REMARK  270  A    between atoms: _690  and  _691
REMARK  271  A    between atoms: _691  and  _692
REMARK  272  A    between atoms: _692  and  _693
REMARK  273  A    between atoms: _702  and  _704
REMARK  274  A    between atoms: _704  and  _705
REMARK  275  A    between atoms: _704  and  _707
REMARK  276  A    between atoms: _707  and  _708
REMARK  277  A    between atoms: _711  and  _713
REMARK  278  A    between atoms: _713  and  _714
REMARK  279  A    between atoms: _713  and  _716
REMARK  280  A    between atoms: _716  and  _717
REMARK  281  A    between atoms: _720  and  _722
REMARK  282  A    between atoms: _722  and  _723
REMARK  283  A    between atoms: _722  and  _725
REMARK  284  A    between atoms: _725  and  _726
REMARK                            x       y       z     vdW  Elec       q    Type
REMARK                         _______ _______ _______ _____ _____    ______ ____
ROOT
ATOM      1  O   HOH     1       8.629  13.208   9.521  0.00  0.00    +0.000 OA
ENDROOT
TORSDOF 0
